<?xml version="1.0" encoding="UTF-8"?>
<routes>
    <vType id="car" accel="2.5" decel="4.5" sigma="0.5" length="4.5" maxSpeed="50.0" color="1,1,0" />
    <vType id="motorcycle" accel="3.5" decel="5.0" sigma="0.3" length="2.2" maxSpeed="60.0" color="0,0,1" />
    <route id="north_to_south" edges="E1 E1.200" />
    <route id="south_to_north" edges="-E1 -E1.238" />
    <route id="east_to_west" edges="E0 E0.319" />
    <route id="west_to_east" edges="-E0 -E0.254" />
    <vehicle id="veh_0" type="car" route="north_to_south" depart="0.0" />
    <vehicle id="veh_1" type="car" route="north_to_south" depart="15.0" />
    <vehicle id="veh_2" type="motorcycle" route="north_to_south" depart="30.0" />
    <vehicle id="veh_3" type="car" route="north_to_south" depart="45.0" />
    <vehicle id="veh_4" type="motorcycle" route="north_to_south" depart="60.0" />
    <vehicle id="veh_5" type="motorcycle" route="north_to_south" depart="75.0" />
    <vehicle id="veh_6" type="car" route="north_to_south" depart="90.0" />
    <vehicle id="veh_7" type="car" route="north_to_south" depart="105.0" />
    <vehicle id="veh_8" type="car" route="north_to_south" depart="120.0" />
    <vehicle id="veh_9" type="motorcycle" route="north_to_south" depart="135.0" />
    <vehicle id="veh_10" type="car" route="north_to_south" depart="150.0" />
    <vehicle id="veh_11" type="car" route="north_to_south" depart="165.0" />
    <vehicle id="veh_12" type="car" route="north_to_south" depart="180.0" />
    <vehicle id="veh_13" type="car" route="north_to_south" depart="195.0" />
    <vehicle id="veh_14" type="motorcycle" route="north_to_south" depart="210.0" />
    <vehicle id="veh_15" type="car" route="north_to_south" depart="225.0" />
    <vehicle id="veh_16" type="motorcycle" route="north_to_south" depart="240.0" />
    <vehicle id="veh_17" type="car" route="north_to_south" depart="255.0" />
    <vehicle id="veh_18" type="motorcycle" route="north_to_south" depart="270.0" />
    <vehicle id="veh_19" type="motorcycle" route="north_to_south" depart="285.0" />
    <vehicle id="veh_20" type="car" route="north_to_south" depart="300.0" />
    <vehicle id="veh_21" type="motorcycle" route="north_to_south" depart="315.0" />
    <vehicle id="veh_22" type="car" route="north_to_south" depart="330.0" />
    <vehicle id="veh_23" type="motorcycle" route="north_to_south" depart="345.0" />
    <vehicle id="veh_24" type="car" route="north_to_south" depart="360.0" />
    <vehicle id="veh_25" type="car" route="north_to_south" depart="375.0" />
    <vehicle id="veh_26" type="car" route="north_to_south" depart="390.0" />
    <vehicle id="veh_27" type="car" route="north_to_south" depart="405.0" />
    <vehicle id="veh_28" type="car" route="north_to_south" depart="420.0" />
    <vehicle id="veh_29" type="car" route="north_to_south" depart="435.0" />
    <vehicle id="veh_30" type="car" route="north_to_south" depart="450.0" />
    <vehicle id="veh_31" type="car" route="north_to_south" depart="465.0" />
    <vehicle id="veh_32" type="car" route="north_to_south" depart="480.0" />
    <vehicle id="veh_33" type="car" route="north_to_south" depart="495.0" />
    <vehicle id="veh_34" type="car" route="north_to_south" depart="510.0" />
    <vehicle id="veh_35" type="car" route="north_to_south" depart="525.0" />
    <vehicle id="veh_36" type="motorcycle" route="north_to_south" depart="540.0" />
    <vehicle id="veh_37" type="car" route="north_to_south" depart="555.0" />
    <vehicle id="veh_38" type="motorcycle" route="north_to_south" depart="570.0" />
    <vehicle id="veh_39" type="car" route="north_to_south" depart="585.0" />
    <vehicle id="veh_40" type="motorcycle" route="north_to_south" depart="600.0" />
    <vehicle id="veh_41" type="car" route="north_to_south" depart="615.0" />
    <vehicle id="veh_42" type="car" route="north_to_south" depart="630.0" />
    <vehicle id="veh_43" type="car" route="north_to_south" depart="645.0" />
    <vehicle id="veh_44" type="car" route="north_to_south" depart="660.0" />
    <vehicle id="veh_45" type="car" route="north_to_south" depart="675.0" />
    <vehicle id="veh_46" type="motorcycle" route="north_to_south" depart="690.0" />
    <vehicle id="veh_47" type="car" route="north_to_south" depart="705.0" />
    <vehicle id="veh_48" type="car" route="north_to_south" depart="720.0" />
    <vehicle id="veh_49" type="car" route="north_to_south" depart="735.0" />
    <vehicle id="veh_50" type="car" route="north_to_south" depart="750.0" />
    <vehicle id="veh_51" type="motorcycle" route="north_to_south" depart="765.0" />
    <vehicle id="veh_52" type="motorcycle" route="north_to_south" depart="780.0" />
    <vehicle id="veh_53" type="car" route="north_to_south" depart="795.0" />
    <vehicle id="veh_54" type="motorcycle" route="north_to_south" depart="810.0" />
    <vehicle id="veh_55" type="car" route="north_to_south" depart="825.0" />
    <vehicle id="veh_56" type="motorcycle" route="north_to_south" depart="840.0" />
    <vehicle id="veh_57" type="car" route="north_to_south" depart="855.0" />
    <vehicle id="veh_58" type="car" route="north_to_south" depart="870.0" />
    <vehicle id="veh_59" type="motorcycle" route="north_to_south" depart="885.0" />
    <vehicle id="veh_60" type="car" route="north_to_south" depart="900.0" />
    <vehicle id="veh_61" type="car" route="north_to_south" depart="915.0" />
    <vehicle id="veh_62" type="car" route="north_to_south" depart="930.0" />
    <vehicle id="veh_63" type="car" route="north_to_south" depart="945.0" />
    <vehicle id="veh_64" type="motorcycle" route="north_to_south" depart="960.0" />
    <vehicle id="veh_65" type="car" route="north_to_south" depart="975.0" />
    <vehicle id="veh_66" type="motorcycle" route="north_to_south" depart="990.0" />
    <vehicle id="veh_67" type="car" route="north_to_south" depart="1005.0" />
    <vehicle id="veh_68" type="motorcycle" route="north_to_south" depart="1020.0" />
    <vehicle id="veh_69" type="car" route="north_to_south" depart="1035.0" />
    <vehicle id="veh_70" type="car" route="north_to_south" depart="1050.0" />
    <vehicle id="veh_71" type="car" route="north_to_south" depart="1065.0" />
    <vehicle id="veh_72" type="motorcycle" route="north_to_south" depart="1080.0" />
    <vehicle id="veh_73" type="motorcycle" route="north_to_south" depart="1095.0" />
    <vehicle id="veh_74" type="motorcycle" route="north_to_south" depart="1110.0" />
    <vehicle id="veh_75" type="motorcycle" route="north_to_south" depart="1125.0" />
    <vehicle id="veh_76" type="car" route="north_to_south" depart="1140.0" />
    <vehicle id="veh_77" type="car" route="north_to_south" depart="1155.0" />
    <vehicle id="veh_78" type="car" route="north_to_south" depart="1170.0" />
    <vehicle id="veh_79" type="car" route="north_to_south" depart="1185.0" />
    <vehicle id="veh_80" type="motorcycle" route="north_to_south" depart="1200.0" />
    <vehicle id="veh_81" type="motorcycle" route="north_to_south" depart="1215.0" />
    <vehicle id="veh_82" type="motorcycle" route="north_to_south" depart="1230.0" />
    <vehicle id="veh_83" type="car" route="north_to_south" depart="1245.0" />
    <vehicle id="veh_84" type="motorcycle" route="north_to_south" depart="1260.0" />
    <vehicle id="veh_85" type="motorcycle" route="north_to_south" depart="1275.0" />
    <vehicle id="veh_86" type="car" route="north_to_south" depart="1290.0" />
    <vehicle id="veh_87" type="car" route="north_to_south" depart="1305.0" />
    <vehicle id="veh_88" type="car" route="north_to_south" depart="1320.0" />
    <vehicle id="veh_89" type="car" route="north_to_south" depart="1335.0" />
    <vehicle id="veh_90" type="car" route="north_to_south" depart="1350.0" />
    <vehicle id="veh_91" type="car" route="north_to_south" depart="1365.0" />
    <vehicle id="veh_92" type="motorcycle" route="north_to_south" depart="1380.0" />
    <vehicle id="veh_93" type="car" route="north_to_south" depart="1395.0" />
    <vehicle id="veh_94" type="motorcycle" route="north_to_south" depart="1410.0" />
    <vehicle id="veh_95" type="motorcycle" route="north_to_south" depart="1425.0" />
    <vehicle id="veh_96" type="car" route="north_to_south" depart="1440.0" />
    <vehicle id="veh_97" type="car" route="north_to_south" depart="1455.0" />
    <vehicle id="veh_98" type="motorcycle" route="north_to_south" depart="1470.0" />
    <vehicle id="veh_99" type="car" route="north_to_south" depart="1485.0" />
    <vehicle id="veh_100" type="motorcycle" route="north_to_south" depart="1500.0" />
    <vehicle id="veh_101" type="car" route="north_to_south" depart="1515.0" />
    <vehicle id="veh_102" type="car" route="north_to_south" depart="1530.0" />
    <vehicle id="veh_103" type="motorcycle" route="north_to_south" depart="1545.0" />
    <vehicle id="veh_104" type="motorcycle" route="north_to_south" depart="1560.0" />
    <vehicle id="veh_105" type="car" route="north_to_south" depart="1575.0" />
    <vehicle id="veh_106" type="car" route="north_to_south" depart="1590.0" />
    <vehicle id="veh_107" type="car" route="north_to_south" depart="1605.0" />
    <vehicle id="veh_108" type="motorcycle" route="north_to_south" depart="1620.0" />
    <vehicle id="veh_109" type="car" route="north_to_south" depart="1635.0" />
    <vehicle id="veh_110" type="car" route="north_to_south" depart="1650.0" />
    <vehicle id="veh_111" type="motorcycle" route="north_to_south" depart="1665.0" />
    <vehicle id="veh_112" type="car" route="north_to_south" depart="1680.0" />
    <vehicle id="veh_113" type="motorcycle" route="north_to_south" depart="1695.0" />
    <vehicle id="veh_114" type="car" route="north_to_south" depart="1710.0" />
    <vehicle id="veh_115" type="motorcycle" route="north_to_south" depart="1725.0" />
    <vehicle id="veh_116" type="motorcycle" route="north_to_south" depart="1740.0" />
    <vehicle id="veh_117" type="car" route="north_to_south" depart="1755.0" />
    <vehicle id="veh_118" type="car" route="north_to_south" depart="1770.0" />
    <vehicle id="veh_119" type="car" route="north_to_south" depart="1785.0" />
    <vehicle id="veh_120" type="motorcycle" route="north_to_south" depart="1800.0" />
    <vehicle id="veh_121" type="car" route="north_to_south" depart="1815.0" />
    <vehicle id="veh_122" type="car" route="north_to_south" depart="1830.0" />
    <vehicle id="veh_123" type="car" route="north_to_south" depart="1845.0" />
    <vehicle id="veh_124" type="car" route="north_to_south" depart="1860.0" />
    <vehicle id="veh_125" type="motorcycle" route="north_to_south" depart="1875.0" />
    <vehicle id="veh_126" type="car" route="north_to_south" depart="1890.0" />
    <vehicle id="veh_127" type="car" route="north_to_south" depart="1905.0" />
    <vehicle id="veh_128" type="car" route="north_to_south" depart="1920.0" />
    <vehicle id="veh_129" type="car" route="north_to_south" depart="1935.0" />
    <vehicle id="veh_130" type="car" route="north_to_south" depart="1950.0" />
    <vehicle id="veh_131" type="car" route="north_to_south" depart="1965.0" />
    <vehicle id="veh_132" type="car" route="north_to_south" depart="1980.0" />
    <vehicle id="veh_133" type="car" route="north_to_south" depart="1995.0" />
    <vehicle id="veh_134" type="motorcycle" route="north_to_south" depart="2010.0" />
    <vehicle id="veh_135" type="car" route="north_to_south" depart="2025.0" />
    <vehicle id="veh_136" type="car" route="north_to_south" depart="2040.0" />
    <vehicle id="veh_137" type="car" route="north_to_south" depart="2055.0" />
    <vehicle id="veh_138" type="motorcycle" route="north_to_south" depart="2070.0" />
    <vehicle id="veh_139" type="car" route="north_to_south" depart="2085.0" />
    <vehicle id="veh_140" type="car" route="north_to_south" depart="2100.0" />
    <vehicle id="veh_141" type="car" route="north_to_south" depart="2115.0" />
    <vehicle id="veh_142" type="motorcycle" route="north_to_south" depart="2130.0" />
    <vehicle id="veh_143" type="motorcycle" route="north_to_south" depart="2145.0" />
    <vehicle id="veh_144" type="car" route="north_to_south" depart="2160.0" />
    <vehicle id="veh_145" type="car" route="north_to_south" depart="2175.0" />
    <vehicle id="veh_146" type="car" route="north_to_south" depart="2190.0" />
    <vehicle id="veh_147" type="car" route="north_to_south" depart="2205.0" />
    <vehicle id="veh_148" type="motorcycle" route="north_to_south" depart="2220.0" />
    <vehicle id="veh_149" type="car" route="north_to_south" depart="2235.0" />
    <vehicle id="veh_150" type="motorcycle" route="north_to_south" depart="2250.0" />
    <vehicle id="veh_151" type="car" route="north_to_south" depart="2265.0" />
    <vehicle id="veh_152" type="car" route="north_to_south" depart="2280.0" />
    <vehicle id="veh_153" type="car" route="north_to_south" depart="2295.0" />
    <vehicle id="veh_154" type="car" route="north_to_south" depart="2310.0" />
    <vehicle id="veh_155" type="motorcycle" route="north_to_south" depart="2325.0" />
    <vehicle id="veh_156" type="car" route="north_to_south" depart="2340.0" />
    <vehicle id="veh_157" type="car" route="north_to_south" depart="2355.0" />
    <vehicle id="veh_158" type="car" route="north_to_south" depart="2370.0" />
    <vehicle id="veh_159" type="car" route="north_to_south" depart="2385.0" />
    <vehicle id="veh_160" type="car" route="north_to_south" depart="2400.0" />
    <vehicle id="veh_161" type="car" route="north_to_south" depart="2415.0" />
    <vehicle id="veh_162" type="car" route="north_to_south" depart="2430.0" />
    <vehicle id="veh_163" type="car" route="north_to_south" depart="2445.0" />
    <vehicle id="veh_164" type="car" route="north_to_south" depart="2460.0" />
    <vehicle id="veh_165" type="car" route="north_to_south" depart="2475.0" />
    <vehicle id="veh_166" type="car" route="north_to_south" depart="2490.0" />
    <vehicle id="veh_167" type="motorcycle" route="north_to_south" depart="2505.0" />
    <vehicle id="veh_168" type="car" route="north_to_south" depart="2520.0" />
    <vehicle id="veh_169" type="motorcycle" route="north_to_south" depart="2535.0" />
    <vehicle id="veh_170" type="car" route="north_to_south" depart="2550.0" />
    <vehicle id="veh_171" type="car" route="north_to_south" depart="2565.0" />
    <vehicle id="veh_172" type="motorcycle" route="north_to_south" depart="2580.0" />
    <vehicle id="veh_173" type="car" route="north_to_south" depart="2595.0" />
    <vehicle id="veh_174" type="motorcycle" route="north_to_south" depart="2610.0" />
    <vehicle id="veh_175" type="motorcycle" route="north_to_south" depart="2625.0" />
    <vehicle id="veh_176" type="car" route="north_to_south" depart="2640.0" />
    <vehicle id="veh_177" type="car" route="north_to_south" depart="2655.0" />
    <vehicle id="veh_178" type="car" route="north_to_south" depart="2670.0" />
    <vehicle id="veh_179" type="car" route="north_to_south" depart="2685.0" />
    <vehicle id="veh_180" type="car" route="north_to_south" depart="2700.0" />
    <vehicle id="veh_181" type="motorcycle" route="north_to_south" depart="2715.0" />
    <vehicle id="veh_182" type="car" route="north_to_south" depart="2730.0" />
    <vehicle id="veh_183" type="car" route="north_to_south" depart="2745.0" />
    <vehicle id="veh_184" type="car" route="north_to_south" depart="2760.0" />
    <vehicle id="veh_185" type="motorcycle" route="north_to_south" depart="2775.0" />
    <vehicle id="veh_186" type="car" route="north_to_south" depart="2790.0" />
    <vehicle id="veh_187" type="motorcycle" route="north_to_south" depart="2805.0" />
    <vehicle id="veh_188" type="motorcycle" route="north_to_south" depart="2820.0" />
    <vehicle id="veh_189" type="car" route="north_to_south" depart="2835.0" />
    <vehicle id="veh_190" type="car" route="north_to_south" depart="2850.0" />
    <vehicle id="veh_191" type="car" route="north_to_south" depart="2865.0" />
    <vehicle id="veh_192" type="car" route="north_to_south" depart="2880.0" />
    <vehicle id="veh_193" type="motorcycle" route="north_to_south" depart="2895.0" />
    <vehicle id="veh_194" type="motorcycle" route="north_to_south" depart="2910.0" />
    <vehicle id="veh_195" type="car" route="north_to_south" depart="2925.0" />
    <vehicle id="veh_196" type="car" route="north_to_south" depart="2940.0" />
    <vehicle id="veh_197" type="car" route="north_to_south" depart="2955.0" />
    <vehicle id="veh_198" type="motorcycle" route="north_to_south" depart="2970.0" />
    <vehicle id="veh_199" type="car" route="north_to_south" depart="2985.0" />
    <vehicle id="veh_200" type="motorcycle" route="north_to_south" depart="3000.0" />
    <vehicle id="veh_201" type="motorcycle" route="north_to_south" depart="3015.0" />
    <vehicle id="veh_202" type="car" route="north_to_south" depart="3030.0" />
    <vehicle id="veh_203" type="motorcycle" route="north_to_south" depart="3045.0" />
    <vehicle id="veh_204" type="car" route="north_to_south" depart="3060.0" />
    <vehicle id="veh_205" type="car" route="north_to_south" depart="3075.0" />
    <vehicle id="veh_206" type="car" route="north_to_south" depart="3090.0" />
    <vehicle id="veh_207" type="car" route="north_to_south" depart="3105.0" />
    <vehicle id="veh_208" type="motorcycle" route="north_to_south" depart="3120.0" />
    <vehicle id="veh_209" type="motorcycle" route="north_to_south" depart="3135.0" />
    <vehicle id="veh_210" type="motorcycle" route="north_to_south" depart="3150.0" />
    <vehicle id="veh_211" type="car" route="north_to_south" depart="3165.0" />
    <vehicle id="veh_212" type="car" route="north_to_south" depart="3180.0" />
    <vehicle id="veh_213" type="motorcycle" route="north_to_south" depart="3195.0" />
    <vehicle id="veh_214" type="car" route="north_to_south" depart="3210.0" />
    <vehicle id="veh_215" type="motorcycle" route="north_to_south" depart="3225.0" />
    <vehicle id="veh_216" type="car" route="north_to_south" depart="3240.0" />
    <vehicle id="veh_217" type="car" route="north_to_south" depart="3255.0" />
    <vehicle id="veh_218" type="car" route="north_to_south" depart="3270.0" />
    <vehicle id="veh_219" type="car" route="north_to_south" depart="3285.0" />
    <vehicle id="veh_220" type="car" route="north_to_south" depart="3300.0" />
    <vehicle id="veh_221" type="car" route="north_to_south" depart="3315.0" />
    <vehicle id="veh_222" type="car" route="north_to_south" depart="3330.0" />
    <vehicle id="veh_223" type="car" route="north_to_south" depart="3345.0" />
    <vehicle id="veh_224" type="car" route="north_to_south" depart="3360.0" />
    <vehicle id="veh_225" type="motorcycle" route="north_to_south" depart="3375.0" />
    <vehicle id="veh_226" type="car" route="north_to_south" depart="3390.0" />
    <vehicle id="veh_227" type="motorcycle" route="north_to_south" depart="3405.0" />
    <vehicle id="veh_228" type="car" route="north_to_south" depart="3420.0" />
    <vehicle id="veh_229" type="car" route="north_to_south" depart="3435.0" />
    <vehicle id="veh_230" type="car" route="north_to_south" depart="3450.0" />
    <vehicle id="veh_231" type="motorcycle" route="north_to_south" depart="3465.0" />
    <vehicle id="veh_232" type="car" route="north_to_south" depart="3480.0" />
    <vehicle id="veh_233" type="car" route="north_to_south" depart="3495.0" />
    <vehicle id="veh_234" type="car" route="north_to_south" depart="3510.0" />
    <vehicle id="veh_235" type="motorcycle" route="north_to_south" depart="3525.0" />
    <vehicle id="veh_236" type="car" route="north_to_south" depart="3540.0" />
    <vehicle id="veh_237" type="car" route="north_to_south" depart="3555.0" />
    <vehicle id="veh_238" type="car" route="north_to_south" depart="3570.0" />
    <vehicle id="veh_239" type="car" route="north_to_south" depart="3585.0" />
    <vehicle id="veh_240" type="car" route="south_to_north" depart="0.0" />
    <vehicle id="veh_241" type="car" route="south_to_north" depart="18.0" />
    <vehicle id="veh_242" type="motorcycle" route="south_to_north" depart="36.0" />
    <vehicle id="veh_243" type="car" route="south_to_north" depart="54.0" />
    <vehicle id="veh_244" type="motorcycle" route="south_to_north" depart="72.0" />
    <vehicle id="veh_245" type="car" route="south_to_north" depart="90.0" />
    <vehicle id="veh_246" type="car" route="south_to_north" depart="108.0" />
    <vehicle id="veh_247" type="motorcycle" route="south_to_north" depart="126.0" />
    <vehicle id="veh_248" type="car" route="south_to_north" depart="144.0" />
    <vehicle id="veh_249" type="car" route="south_to_north" depart="162.0" />
    <vehicle id="veh_250" type="motorcycle" route="south_to_north" depart="180.0" />
    <vehicle id="veh_251" type="car" route="south_to_north" depart="198.0" />
    <vehicle id="veh_252" type="car" route="south_to_north" depart="216.0" />
    <vehicle id="veh_253" type="car" route="south_to_north" depart="234.0" />
    <vehicle id="veh_254" type="motorcycle" route="south_to_north" depart="252.0" />
    <vehicle id="veh_255" type="motorcycle" route="south_to_north" depart="270.0" />
    <vehicle id="veh_256" type="car" route="south_to_north" depart="288.0" />
    <vehicle id="veh_257" type="car" route="south_to_north" depart="306.0" />
    <vehicle id="veh_258" type="car" route="south_to_north" depart="324.0" />
    <vehicle id="veh_259" type="car" route="south_to_north" depart="342.0" />
    <vehicle id="veh_260" type="motorcycle" route="south_to_north" depart="360.0" />
    <vehicle id="veh_261" type="motorcycle" route="south_to_north" depart="378.0" />
    <vehicle id="veh_262" type="car" route="south_to_north" depart="396.0" />
    <vehicle id="veh_263" type="motorcycle" route="south_to_north" depart="414.0" />
    <vehicle id="veh_264" type="motorcycle" route="south_to_north" depart="432.0" />
    <vehicle id="veh_265" type="motorcycle" route="south_to_north" depart="450.0" />
    <vehicle id="veh_266" type="car" route="south_to_north" depart="468.0" />
    <vehicle id="veh_267" type="motorcycle" route="south_to_north" depart="486.0" />
    <vehicle id="veh_268" type="car" route="south_to_north" depart="504.0" />
    <vehicle id="veh_269" type="motorcycle" route="south_to_north" depart="522.0" />
    <vehicle id="veh_270" type="motorcycle" route="south_to_north" depart="540.0" />
    <vehicle id="veh_271" type="car" route="south_to_north" depart="558.0" />
    <vehicle id="veh_272" type="car" route="south_to_north" depart="576.0" />
    <vehicle id="veh_273" type="car" route="south_to_north" depart="594.0" />
    <vehicle id="veh_274" type="car" route="south_to_north" depart="612.0" />
    <vehicle id="veh_275" type="car" route="south_to_north" depart="630.0" />
    <vehicle id="veh_276" type="car" route="south_to_north" depart="648.0" />
    <vehicle id="veh_277" type="car" route="south_to_north" depart="666.0" />
    <vehicle id="veh_278" type="car" route="south_to_north" depart="684.0" />
    <vehicle id="veh_279" type="car" route="south_to_north" depart="702.0" />
    <vehicle id="veh_280" type="motorcycle" route="south_to_north" depart="720.0" />
    <vehicle id="veh_281" type="car" route="south_to_north" depart="738.0" />
    <vehicle id="veh_282" type="car" route="south_to_north" depart="756.0" />
    <vehicle id="veh_283" type="motorcycle" route="south_to_north" depart="774.0" />
    <vehicle id="veh_284" type="car" route="south_to_north" depart="792.0" />
    <vehicle id="veh_285" type="motorcycle" route="south_to_north" depart="810.0" />
    <vehicle id="veh_286" type="car" route="south_to_north" depart="828.0" />
    <vehicle id="veh_287" type="car" route="south_to_north" depart="846.0" />
    <vehicle id="veh_288" type="car" route="south_to_north" depart="864.0" />
    <vehicle id="veh_289" type="motorcycle" route="south_to_north" depart="882.0" />
    <vehicle id="veh_290" type="car" route="south_to_north" depart="900.0" />
    <vehicle id="veh_291" type="car" route="south_to_north" depart="918.0" />
    <vehicle id="veh_292" type="motorcycle" route="south_to_north" depart="936.0" />
    <vehicle id="veh_293" type="car" route="south_to_north" depart="954.0" />
    <vehicle id="veh_294" type="motorcycle" route="south_to_north" depart="972.0" />
    <vehicle id="veh_295" type="car" route="south_to_north" depart="990.0" />
    <vehicle id="veh_296" type="car" route="south_to_north" depart="1008.0" />
    <vehicle id="veh_297" type="motorcycle" route="south_to_north" depart="1026.0" />
    <vehicle id="veh_298" type="car" route="south_to_north" depart="1044.0" />
    <vehicle id="veh_299" type="car" route="south_to_north" depart="1062.0" />
    <vehicle id="veh_300" type="car" route="south_to_north" depart="1080.0" />
    <vehicle id="veh_301" type="car" route="south_to_north" depart="1098.0" />
    <vehicle id="veh_302" type="motorcycle" route="south_to_north" depart="1116.0" />
    <vehicle id="veh_303" type="motorcycle" route="south_to_north" depart="1134.0" />
    <vehicle id="veh_304" type="motorcycle" route="south_to_north" depart="1152.0" />
    <vehicle id="veh_305" type="motorcycle" route="south_to_north" depart="1170.0" />
    <vehicle id="veh_306" type="car" route="south_to_north" depart="1188.0" />
    <vehicle id="veh_307" type="car" route="south_to_north" depart="1206.0" />
    <vehicle id="veh_308" type="motorcycle" route="south_to_north" depart="1224.0" />
    <vehicle id="veh_309" type="car" route="south_to_north" depart="1242.0" />
    <vehicle id="veh_310" type="car" route="south_to_north" depart="1260.0" />
    <vehicle id="veh_311" type="motorcycle" route="south_to_north" depart="1278.0" />
    <vehicle id="veh_312" type="car" route="south_to_north" depart="1296.0" />
    <vehicle id="veh_313" type="car" route="south_to_north" depart="1314.0" />
    <vehicle id="veh_314" type="car" route="south_to_north" depart="1332.0" />
    <vehicle id="veh_315" type="car" route="south_to_north" depart="1350.0" />
    <vehicle id="veh_316" type="motorcycle" route="south_to_north" depart="1368.0" />
    <vehicle id="veh_317" type="car" route="south_to_north" depart="1386.0" />
    <vehicle id="veh_318" type="car" route="south_to_north" depart="1404.0" />
    <vehicle id="veh_319" type="motorcycle" route="south_to_north" depart="1422.0" />
    <vehicle id="veh_320" type="motorcycle" route="south_to_north" depart="1440.0" />
    <vehicle id="veh_321" type="car" route="south_to_north" depart="1458.0" />
    <vehicle id="veh_322" type="car" route="south_to_north" depart="1476.0" />
    <vehicle id="veh_323" type="car" route="south_to_north" depart="1494.0" />
    <vehicle id="veh_324" type="motorcycle" route="south_to_north" depart="1512.0" />
    <vehicle id="veh_325" type="motorcycle" route="south_to_north" depart="1530.0" />
    <vehicle id="veh_326" type="car" route="south_to_north" depart="1548.0" />
    <vehicle id="veh_327" type="car" route="south_to_north" depart="1566.0" />
    <vehicle id="veh_328" type="car" route="south_to_north" depart="1584.0" />
    <vehicle id="veh_329" type="motorcycle" route="south_to_north" depart="1602.0" />
    <vehicle id="veh_330" type="motorcycle" route="south_to_north" depart="1620.0" />
    <vehicle id="veh_331" type="car" route="south_to_north" depart="1638.0" />
    <vehicle id="veh_332" type="car" route="south_to_north" depart="1656.0" />
    <vehicle id="veh_333" type="car" route="south_to_north" depart="1674.0" />
    <vehicle id="veh_334" type="car" route="south_to_north" depart="1692.0" />
    <vehicle id="veh_335" type="motorcycle" route="south_to_north" depart="1710.0" />
    <vehicle id="veh_336" type="motorcycle" route="south_to_north" depart="1728.0" />
    <vehicle id="veh_337" type="car" route="south_to_north" depart="1746.0" />
    <vehicle id="veh_338" type="car" route="south_to_north" depart="1764.0" />
    <vehicle id="veh_339" type="car" route="south_to_north" depart="1782.0" />
    <vehicle id="veh_340" type="motorcycle" route="south_to_north" depart="1800.0" />
    <vehicle id="veh_341" type="motorcycle" route="south_to_north" depart="1818.0" />
    <vehicle id="veh_342" type="car" route="south_to_north" depart="1836.0" />
    <vehicle id="veh_343" type="car" route="south_to_north" depart="1854.0" />
    <vehicle id="veh_344" type="car" route="south_to_north" depart="1872.0" />
    <vehicle id="veh_345" type="car" route="south_to_north" depart="1890.0" />
    <vehicle id="veh_346" type="car" route="south_to_north" depart="1908.0" />
    <vehicle id="veh_347" type="motorcycle" route="south_to_north" depart="1926.0" />
    <vehicle id="veh_348" type="car" route="south_to_north" depart="1944.0" />
    <vehicle id="veh_349" type="car" route="south_to_north" depart="1962.0" />
    <vehicle id="veh_350" type="motorcycle" route="south_to_north" depart="1980.0" />
    <vehicle id="veh_351" type="car" route="south_to_north" depart="1998.0" />
    <vehicle id="veh_352" type="motorcycle" route="south_to_north" depart="2016.0" />
    <vehicle id="veh_353" type="motorcycle" route="south_to_north" depart="2034.0" />
    <vehicle id="veh_354" type="car" route="south_to_north" depart="2052.0" />
    <vehicle id="veh_355" type="motorcycle" route="south_to_north" depart="2070.0" />
    <vehicle id="veh_356" type="car" route="south_to_north" depart="2088.0" />
    <vehicle id="veh_357" type="car" route="south_to_north" depart="2106.0" />
    <vehicle id="veh_358" type="car" route="south_to_north" depart="2124.0" />
    <vehicle id="veh_359" type="motorcycle" route="south_to_north" depart="2142.0" />
    <vehicle id="veh_360" type="motorcycle" route="south_to_north" depart="2160.0" />
    <vehicle id="veh_361" type="car" route="south_to_north" depart="2178.0" />
    <vehicle id="veh_362" type="car" route="south_to_north" depart="2196.0" />
    <vehicle id="veh_363" type="car" route="south_to_north" depart="2214.0" />
    <vehicle id="veh_364" type="motorcycle" route="south_to_north" depart="2232.0" />
    <vehicle id="veh_365" type="motorcycle" route="south_to_north" depart="2250.0" />