<?xml version="1.0" encoding="UTF-8"?>

<!-- generated on 2025-08-12 11:31:07 by Eclipse SUMO netedit Version 1.24.0
<neteditConfiguration xmlns:xsi="http://www.w3.org/2001/XMLSchema-instance" xsi:noNamespaceSchemaLocation="http://sumo.dlr.de/xsd/neteditConfiguration.xsd">

    <input>
        <sumocfg-file value="D:\Codes\Projects\Traffic-Light-Automation\demo.sumocfg"/>
        <route-files value="D:\Codes\Projects\Traffic-Light-Automation\demo.rou.xml"/>
        <sumo-net-file value="D:\Codes\Projects\Traffic-Light-Automation\demo.net.xml"/>
    </input>

    <output>
        <output-file value="D:\Codes\Projects\Traffic-Light-Automation\demo.net.xml"/>
    </output>

    <processing>
        <offset.disable-normalization value="true"/>
    </processing>

    <junctions>
        <no-turnarounds value="true"/>
    </junctions>

    <netedit>
        <new-network value="false"/>
    </netedit>

</neteditConfiguration>
-->

<net version="1.20" junctionCornerDetail="5" limitTurnSpeed="5.50" xmlns:xsi="http://www.w3.org/2001/XMLSchema-instance" xsi:noNamespaceSchemaLocation="http://sumo.dlr.de/xsd/net_file.xsd">

    <location netOffset="0.00,0.00" convBoundary="-376.77,-225.46,198.37,207.73" origBoundary="10000000000.00,10000000000.00,-10000000000.00,-10000000000.00" projParameter="!"/>

    <edge id=":J4_0" function="internal">
        <lane id=":J4_0_0" index="0" speed="6.49" length="9.03" shape="-86.64,-15.11 -86.29,-12.65 -85.24,-10.91 -83.49,-9.86 -81.04,-9.52"/>
    </edge>
    <edge id=":J4_1" function="internal">
        <lane id=":J4_1_0" index="0" speed="13.89" length="20.95" shape="-86.64,-15.11 -86.68,5.85"/>
        <lane id=":J4_1_1" index="1" speed="13.89" length="20.96" shape="-89.84,-15.11 -89.88,5.84"/>
    </edge>
    <edge id=":J4_3" function="internal">
        <lane id=":J4_3_0" index="0" speed="9.36" length="19.53" shape="-89.84,-15.11 -90.60,-9.85 -92.88,-6.06 -96.66,-3.74 -101.95,-2.90"/>
    </edge>
    <edge id=":J4_4" function="internal">
        <lane id=":J4_4_0" index="0" speed="6.60" length="9.28" shape="-102.06,-9.43 -99.52,-9.79 -97.70,-10.87 -96.61,-12.65 -96.24,-15.13"/>
    </edge>
    <edge id=":J4_5" function="internal">
        <lane id=":J4_5_0" index="0" speed="13.89" length="21.00" shape="-102.06,-9.43 -81.04,-9.52"/>
        <lane id=":J4_5_1" index="1" speed="13.89" length="21.00" shape="-102.00,-6.23 -81.03,-6.32"/>
    </edge>
    <edge id=":J4_7" function="internal">
        <lane id=":J4_7_0" index="0" speed="9.28" length="19.54" shape="-102.00,-6.23 -96.69,-5.50 -92.90,-3.24 -90.63,0.54 -89.88,5.84"/>
    </edge>
    <edge id=":J4_8" function="internal">
        <lane id=":J4_8_0" index="0" speed="6.47" length="9.03" shape="-96.28,5.83 -96.62,3.37 -97.68,1.63 -99.43,0.61 -101.90,0.29"/>
    </edge>
    <edge id=":J4_9" function="internal">
        <lane id=":J4_9_0" index="0" speed="13.89" length="20.96" shape="-96.28,5.83 -96.24,-15.13"/>
        <lane id=":J4_9_1" index="1" speed="13.89" length="20.96" shape="-93.08,5.84 -93.04,-15.12"/>
    </edge>
    <edge id=":J4_11" function="internal">
        <lane id=":J4_11_0" index="0" speed="9.31" length="19.49" shape="-93.08,5.84 -92.32,0.53 -90.05,-3.26 -86.29,-5.54 -81.03,-6.32"/>
    </edge>
    <edge id=":J4_12" function="internal">
        <lane id=":J4_12_0" index="0" speed="6.58" length="9.21" shape="-81.00,0.08 -83.48,0.45 -85.25,1.53 -86.32,3.33 -86.68,5.85"/>
    </edge>
    <edge id=":J4_13" function="internal">
        <lane id=":J4_13_0" index="0" speed="13.89" length="20.91" shape="-81.00,0.08 -101.90,0.29"/>
        <lane id=":J4_13_1" index="1" speed="13.89" length="20.91" shape="-81.02,-3.12 -101.95,-2.90"/>
    </edge>
    <edge id=":J4_15" function="internal">
        <lane id=":J4_15_0" index="0" speed="9.25" length="19.40" shape="-81.02,-3.12 -86.28,-3.85 -90.04,-6.10 -92.30,-9.85 -93.04,-15.12"/>
    </edge>

    <edge id="-E0" from="J1" to="J4" priority="-1">
        <lane id="-E0_0" index="0" speed="13.89" length="279.39" shape="198.39,-0.96 -81.00,0.08"/>
        <lane id="-E0_1" index="1" speed="13.89" length="279.39" shape="198.38,-4.16 -81.02,-3.12"/>
    </edge>
    <edge id="-E0.254" from="J4" to="J0" priority="-1" shape="-91.46,-4.68 -108.26,-4.40 -376.77,-3.21">
        <lane id="-E0.254_0" index="0" speed="13.89" length="274.83" shape="-101.90,0.29 -108.21,0.40 -376.74,1.59"/>
        <lane id="-E0.254_1" index="1" speed="13.89" length="274.83" shape="-101.95,-2.90 -108.24,-2.80 -376.76,-1.61"/>
    </edge>
    <edge id="-E1" from="J3" to="J4" priority="-1" shape="-90.96,-225.46 -91.43,-2.37 -91.46,-4.68">
        <lane id="-E1_0" index="0" speed="13.89" length="210.34" shape="-86.16,-225.45 -86.64,-15.11"/>
        <lane id="-E1_1" index="1" speed="13.89" length="210.34" shape="-89.36,-225.46 -89.84,-15.11"/>
    </edge>
    <edge id="-E1.238" from="J4" to="J2" priority="-1" shape="-91.46,-4.68 -91.57,64.89 -91.69,120.93 -91.87,207.73">
        <lane id="-E1.238_0" index="0" speed="13.89" length="201.89" shape="-86.68,5.85 -86.77,64.90 -86.89,120.94 -87.07,207.74"/>
        <lane id="-E1.238_1" index="1" speed="13.89" length="201.89" shape="-89.88,5.84 -89.97,64.89 -90.09,120.93 -90.27,207.73"/>
    </edge>
    <edge id="E0" from="J0" to="J4" priority="-1">
        <lane id="E0_0" index="0" speed="13.89" length="274.76" shape="-376.79,-8.01 -102.06,-9.43"/>
        <lane id="E0_1" index="1" speed="13.89" length="274.76" shape="-376.78,-4.81 -102.00,-6.23"/>
    </edge>
    <edge id="E0.319" from="J4" to="J1" priority="-1">
        <lane id="E0.319_0" index="0" speed="13.89" length="279.39" shape="-81.04,-9.52 198.35,-10.56"/>
        <lane id="E0.319_1" index="1" speed="13.89" length="279.39" shape="-81.03,-6.32 198.36,-7.36"/>
    </edge>
    <edge id="E1" from="J2" to="J4" priority="-1" shape="-91.87,207.73 -91.69,120.93 -91.57,64.89 -91.46,-4.68">
        <lane id="E1_0" index="0" speed="13.89" length="201.89" shape="-96.67,207.72 -96.49,120.92 -96.37,64.88 -96.28,5.83"/>
        <lane id="E1_1" index="1" speed="13.89" length="201.89" shape="-93.47,207.73 -93.29,120.93 -93.17,64.89 -93.08,5.84"/>
    </edge>
    <edge id="E1.200" from="J4" to="J3" priority="-1">
        <lane id="E1.200_0" index="0" speed="13.89" length="210.34" shape="-96.24,-15.13 -95.76,-225.47"/>
        <lane id="E1.200_1" index="1" speed="13.89" length="210.34" shape="-93.04,-15.12 -92.56,-225.46"/>
    </edge>

    <tlLogic id="J4" type="static" programID="0" offset="0">
        <phase duration="3"  state="rrrrrrrrrrrrrrrrr" next="1"/>
        <phase duration="30" state="GrrrgrrrrrrrGGGGr" next="2"/>
        <phase duration="3"  state="yrrryrrrrrrryyyyr" next="3"/>
        <phase duration="30" state="grrrgrrrGGGGGrrrr" next="4"/>
        <phase duration="3"  state="yrrryrrryyyyyrrrr" next="5"/>
        <phase duration="30" state="grrrGGGGGrrrgrrrr" next="6"/>
        <phase duration="3"  state="yrrryyyyyrrryrrrr" next="7"/>
        <phase duration="30" state="GGGGGrrrgrrrgrrrr" next="8"/>
        <phase duration="3"  state="yyyyyrrryrrryrrrr" next="1"/>
    </tlLogic>

    <junction id="J0" type="dead_end" x="-376.77" y="-3.21" incLanes="-E0.254_0 -E0.254_1" intLanes="" shape="-376.77,-3.21 -376.80,-9.61 -376.74,3.19"/>
    <junction id="J1" type="dead_end" x="198.37" y="-5.76" incLanes="E0.319_0 E0.319_1" intLanes="" shape="198.37,-5.76 198.35,-12.16 198.37,-5.76"/>
    <junction id="J2" type="dead_end" x="-91.87" y="207.73" incLanes="-E1.238_0 -E1.238_1" intLanes="" shape="-91.87,207.73 -85.47,207.74 -91.87,207.73"/>
    <junction id="J3" type="dead_end" x="-90.96" y="-225.46" incLanes="E1.200_0 E1.200_1" intLanes="" shape="-90.96,-225.46 -97.36,-225.47 -90.96,-225.46"/>
    <junction id="J4" type="traffic_light" x="-91.46" y="-4.68" incLanes="-E1_0 -E1_1 E0_0 E0_1 E1_0 E1_1 -E0_0 -E0_1" intLanes=":J4_0_0 :J4_1_0 :J4_1_1 :J4_3_0 :J4_4_0 :J4_5_0 :J4_5_1 :J4_7_0 :J4_8_0 :J4_9_0 :J4_9_1 :J4_11_0 :J4_12_0 :J4_13_0 :J4_13_1 :J4_15_0" shape="-85.04,-15.10 -97.84,-15.13 -98.31,-12.86 -98.90,-12.06 -99.73,-11.49 -100.79,-11.15 -102.08,-11.03 -101.87,1.89 -99.65,2.30 -98.87,2.84 -98.32,3.61 -97.99,4.61 -97.88,5.83 -85.08,5.85 -84.62,3.54 -84.05,2.73 -83.26,2.15 -82.24,1.80 -81.00,1.68 -81.05,-11.12 -83.27,-11.55 -84.04,-12.11 -84.60,-12.88 -84.93,-13.88">
        <request index="0"  response="0000000001100000" foes="0000100001100000" cont="0"/>
        <request index="1"  response="1111000011100000" foes="1111100011100000" cont="0"/>
        <request index="2"  response="1111000011100000" foes="1111100011100000" cont="0"/>
        <request index="3"  response="1110011011100000" foes="1110011011100000" cont="0"/>
        <request index="4"  response="0000000000000000" foes="0000011000000000" cont="0"/>
        <request index="5"  response="0000000000000000" foes="1000111000001111" cont="0"/>
        <request index="6"  response="0000000000000000" foes="1000111000001111" cont="0"/>
        <request index="7"  response="0110000000000000" foes="0110111000001110" cont="0"/>
        <request index="8"  response="0110000000000000" foes="0110000000000000" cont="0"/>
        <request index="9"  response="1110000011110000" foes="1110000011111000" cont="0"/>
        <request index="10" response="1110000011110000" foes="1110000011111000" cont="0"/>
        <request index="11" response="1110000011100111" foes="1110000011100111" cont="0"/>
        <request index="12" response="0000000000000000" foes="0000000000000110" cont="0"/>
        <request index="13" response="0000000000000000" foes="0000111110001110" cont="0"/>
        <request index="14" response="0000000000000000" foes="0000111110001110" cont="0"/>
        <request index="15" response="0000000001100000" foes="0000111001101110" cont="0"/>
    </junction>

    <connection from="-E0" to="-E1.238" fromLane="0" toLane="0" via=":J4_12_0" tl="J4" linkIndex="12" dir="r" state="O"/>
    <connection from="-E0" to="-E0.254" fromLane="0" toLane="0" via=":J4_13_0" tl="J4" linkIndex="13" dir="s" state="O"/>
    <connection from="-E0" to="-E0.254" fromLane="1" toLane="1" via=":J4_13_1" tl="J4" linkIndex="14" dir="s" state="O"/>
    <connection from="-E0" to="E1.200" fromLane="1" toLane="1" via=":J4_15_0" tl="J4" linkIndex="15" dir="l" state="o"/>
    <connection from="-E1" to="E0.319" fromLane="0" toLane="0" via=":J4_0_0" tl="J4" linkIndex="0" dir="l" state="o"/>
    <connection from="-E1" to="-E1.238" fromLane="0" toLane="0" via=":J4_1_0" tl="J4" linkIndex="1" dir="r" state="o"/>
    <connection from="-E1" to="-E1.238" fromLane="1" toLane="1" via=":J4_1_1" tl="J4" linkIndex="2" dir="r" state="o"/>
    <connection from="-E1" to="-E0.254" fromLane="1" toLane="1" via=":J4_3_0" tl="J4" linkIndex="3" dir="r" state="o"/>
    <connection from="E0" to="E1.200" fromLane="0" toLane="0" via=":J4_4_0" tl="J4" linkIndex="4" dir="r" state="O"/>
    <connection from="E0" to="E0.319" fromLane="0" toLane="0" via=":J4_5_0" tl="J4" linkIndex="5" dir="s" state="O"/>
    <connection from="E0" to="E0.319" fromLane="1" toLane="1" via=":J4_5_1" tl="J4" linkIndex="6" dir="s" state="O"/>
    <connection from="E0" to="-E1.238" fromLane="1" toLane="1" via=":J4_7_0" tl="J4" linkIndex="7" dir="l" state="o"/>
    <connection from="E1" to="-E0.254" fromLane="0" toLane="0" via=":J4_8_0" tl="J4" linkIndex="8" dir="r" state="o"/>
    <connection from="E1" to="E1.200" fromLane="0" toLane="0" via=":J4_9_0" tl="J4" linkIndex="9" dir="s" state="o"/>
    <connection from="E1" to="E1.200" fromLane="1" toLane="1" via=":J4_9_1" tl="J4" linkIndex="10" dir="s" state="o"/>
    <connection from="E1" to="E0.319" fromLane="1" toLane="1" via=":J4_11_0" tl="J4" linkIndex="11" dir="l" state="o"/>

    <connection from=":J4_0" to="E0.319" fromLane="0" toLane="0" dir="l" state="M"/>
    <connection from=":J4_1" to="-E1.238" fromLane="0" toLane="0" dir="r" state="M"/>
    <connection from=":J4_1" to="-E1.238" fromLane="1" toLane="1" dir="r" state="M"/>
    <connection from=":J4_3" to="-E0.254" fromLane="0" toLane="1" dir="r" state="M"/>
    <connection from=":J4_4" to="E1.200" fromLane="0" toLane="0" dir="r" state="M"/>
    <connection from=":J4_5" to="E0.319" fromLane="0" toLane="0" dir="s" state="M"/>
    <connection from=":J4_5" to="E0.319" fromLane="1" toLane="1" dir="s" state="M"/>
    <connection from=":J4_7" to="-E1.238" fromLane="0" toLane="1" dir="l" state="M"/>
    <connection from=":J4_8" to="-E0.254" fromLane="0" toLane="0" dir="r" state="M"/>
    <connection from=":J4_9" to="E1.200" fromLane="0" toLane="0" dir="s" state="M"/>
    <connection from=":J4_9" to="E1.200" fromLane="1" toLane="1" dir="s" state="M"/>
    <connection from=":J4_11" to="E0.319" fromLane="0" toLane="1" dir="l" state="M"/>
    <connection from=":J4_12" to="-E1.238" fromLane="0" toLane="0" dir="r" state="M"/>
    <connection from=":J4_13" to="-E0.254" fromLane="0" toLane="0" dir="s" state="M"/>
    <connection from=":J4_13" to="-E0.254" fromLane="1" toLane="1" dir="s" state="M"/>
    <connection from=":J4_15" to="E1.200" fromLane="0" toLane="1" dir="l" state="M"/>

</net>
