<?xml version="1.0" encoding="UTF-8"?>

<!-- generated on 2025-08-12 10:03:22 by Eclipse SUMO netedit Version 1.24.0
-->

<routes xmlns:xsi="http://www.w3.org/2001/XMLSchema-instance" xsi:noNamespaceSchemaLocation="http://sumo.dlr.de/xsd/routes_file.xsd">
    <!-- Vehicles, persons and containers (sorted by depart) -->
    <flow id="f_0" begin="0.00" from="E0" to="E0.319" end="3600.00" vehsPerHour="1000"/>
    <flow id="f_1" begin="0.00" color="0,0,128" from="E0" to="-E1.238" end="3600.00" vehsPerHour="500"/>
    <flow id="f_10" begin="0.00" color="black" from="E1" to="E1.200" end="3600.00" vehsPerHour="1000"/>
    <flow id="f_11" begin="0.00" color="black" from="-E0" to="-E0.254" end="3600.00" vehsPerHour="1000"/>
    <flow id="f_2" begin="0.00" color="magenta" from="E0" to="E1.200" end="3600.00" vehsPerHour="500"/>
    <flow id="f_3" begin="0.00" from="-E1" to="-E1.238" end="3600.00" vehsPerHour="1000"/>
    <flow id="f_4" begin="0.00" color="blue" from="-E1" to="-E0.254" end="3600.00" vehsPerHour="500"/>
    <flow id="f_5" begin="0.00" color="128,0,128" from="-E1" to="E0.319" end="3600.00" vehsPerHour="500"/>
    <flow id="f_6" begin="0.00" color="128,0,128" from="-E0" to="-E1.238" end="3600.00" vehsPerHour="500"/>
    <flow id="f_7" begin="0.00" color="0,128,128" from="-E0" to="E1.200" end="3600.00" vehsPerHour="500"/>
    <flow id="f_8" begin="0.00" color="0,128,128" from="E1" to="-E0.254" end="3600.00" vehsPerHour="500"/>
    <flow id="f_9" begin="0.00" color="128,0,0" from="E1" to="E0.319" end="3600.00" vehsPerHour="500"/>
</routes>
