<?xml version="1.0" encoding="UTF-8"?>\n<configuration>\n    <input>\n        <net-file value="../demo.net.xml"/>\n        <route-files value="throughput_test_light_traffic_conservative.rou.xml"/>\n    </input>\n    <output>\n        <tripinfo-output value="tripinfo_light_traffic_conservative.xml"/>\n    </output>\n    <time>\n        <begin value="0"/>\n        <end value="1800"/>\n    </time>\n    <processing>\n        <ignore-junction-blocker value="60"/>\n        <time-to-teleport value="300"/>\n    </processing>\n</configuration>\n