<?xml version="1.0" encoding="UTF-8"?>

<!-- generated on 2025-12-05 17:24:25 by Eclipse SUMO netedit Version 1.24.0
<neteditConfiguration xmlns:xsi="http://www.w3.org/2001/XMLSchema-instance" xsi:noNamespaceSchemaLocation="http://sumo.dlr.de/xsd/neteditConfiguration.xsd">

    <input>
        <sumocfg-file value="D:\Codes\Projects\Traffic-Light-Automation\s1\k1_6h_weekday.sumocfg"/>
        <route-files value="D:\Codes\Projects\Traffic-Light-Automation\s1\k1_routes_6h_weekday.rou.xml"/>
        <sumo-net-file value="D:\Codes\Projects\Traffic-Light-Automation\s1\k1.net.xml"/>
    </input>

    <output>
        <tls-file value="D:\Codes\Projects\Traffic-Light-Automation\s1\k1.ttl.xml"/>
        <output-file value="D:\Codes\Projects\Traffic-Light-Automation\s1\k1.net.xml"/>
    </output>

    <processing>
        <geometry.min-radius.fix.railways value="false"/>
        <geometry.avoid-overlap value="false"/>
        <geometry.max-grade.fix value="false"/>
        <offset.disable-normalization value="true"/>
        <lefthand value="0"/>
    </processing>

    <junctions>
        <no-turnarounds value="true"/>
        <junctions.corner-detail value="5"/>
        <junctions.limit-turn-speed value="5.50"/>
        <rectangular-lane-cut value="0"/>
    </junctions>

    <pedestrian>
        <walkingareas value="0"/>
    </pedestrian>

</neteditConfiguration>
-->

<net version="1.20" junctionCornerDetail="5" limitTurnSpeed="5.50" avoidOverlap="0" xmlns:xsi="http://www.w3.org/2001/XMLSchema-instance" xsi:noNamespaceSchemaLocation="http://sumo.dlr.de/xsd/net_file.xsd">

    <location netOffset="0.00,0.00" convBoundary="-258.17,-207.75,228.39,153.02" origBoundary="-10000000000.00,-10000000000.00,10000000000.00,10000000000.00" projParameter="!"/>

    <edge id=":J0_0" function="internal">
        <lane id=":J0_0_0" index="0" speed="6.68" length="9.42" shape="-1.78,62.16 -4.30,62.50 -6.13,63.58 -7.27,65.39 -7.72,67.96"/>
    </edge>
    <edge id=":J0_1" function="internal">
        <lane id=":J0_1_0" index="0" speed="13.89" length="20.99" shape="-1.78,62.16 -22.76,61.94"/>
        <lane id=":J0_1_1" index="1" speed="13.89" length="20.99" shape="-1.74,58.96 -22.73,58.74"/>
    </edge>
    <edge id=":J0_3" function="internal">
        <lane id=":J0_3_0" index="0" speed="9.25" length="19.39" shape="-1.74,58.96 -6.99,58.14 -10.71,55.84 -12.90,52.05 -13.56,46.77"/>
    </edge>
    <edge id=":J0_4" function="internal">
        <lane id=":J0_4_0" index="0" speed="6.50" length="9.03" shape="-7.16,46.88 -6.85,49.34 -5.84,51.11 -4.10,52.18 -1.65,52.56"/>
    </edge>
    <edge id=":J0_5" function="internal">
        <lane id=":J0_5_0" index="0" speed="13.89" length="21.05" shape="-7.16,46.88 -7.72,67.96"/>
        <lane id=":J0_5_1" index="1" speed="13.89" length="21.05" shape="-10.36,46.83 -10.91,67.85"/>
    </edge>
    <edge id=":J0_7" function="internal">
        <lane id=":J0_7_0" index="0" speed="9.33" length="19.54" shape="-10.36,46.83 -11.22,52.08 -13.56,55.81 -17.40,58.03 -22.73,58.74"/>
    </edge>
    <edge id=":J0_8" function="internal">
        <lane id=":J0_8_0" index="0" speed="6.61" length="9.30" shape="-22.68,52.34 -20.13,52.01 -18.29,50.96 -17.17,49.19 -16.76,46.71"/>
    </edge>
    <edge id=":J0_9" function="internal">
        <lane id=":J0_9_0" index="0" speed="13.89" length="21.02" shape="-22.68,52.34 -1.65,52.56"/>
        <lane id=":J0_9_1" index="1" speed="13.89" length="21.02" shape="-22.70,55.54 -1.70,55.76"/>
    </edge>
    <edge id=":J0_11" function="internal">
        <lane id=":J0_11_0" index="0" speed="9.22" length="19.55" shape="-22.70,55.54 -17.39,56.35 -13.65,58.67 -11.49,62.50 -10.91,67.85"/>
    </edge>
    <edge id=":J0_12" function="internal">
        <lane id=":J0_12_0" index="0" speed="6.45" length="9.03" shape="-17.31,67.63 -17.58,65.16 -18.58,63.39 -20.30,62.31 -22.76,61.94"/>
    </edge>
    <edge id=":J0_13" function="internal">
        <lane id=":J0_13_0" index="0" speed="13.89" length="20.95" shape="-17.31,67.63 -16.76,46.71"/>
        <lane id=":J0_13_1" index="1" speed="13.89" length="20.95" shape="-14.11,67.74 -13.56,46.77"/>
    </edge>
    <edge id=":J0_15" function="internal">
        <lane id=":J0_15_0" index="0" speed="9.38" length="19.58" shape="-14.11,67.74 -13.18,62.44 -10.80,58.68 -6.97,56.45 -1.70,55.76"/>
    </edge>
    <edge id=":J1_0" function="internal">
        <lane id=":J1_0_0" index="0" speed="13.89" length="17.99" shape="-0.32,-47.59 -2.75,-43.06 -4.38,-39.87 -5.33,-36.50 -5.70,-31.46"/>
        <lane id=":J1_0_1" index="1" speed="13.89" length="17.99" shape="-3.18,-49.03 -5.79,-44.12 -7.52,-40.64 -8.51,-36.99 -8.90,-31.53"/>
    </edge>
    <edge id=":J1_2" function="internal">
        <lane id=":J1_2_0" index="0" speed="8.89" length="22.02" shape="-3.18,-49.03 -6.80,-43.82 -10.91,-41.61 -15.51,-42.40 -20.60,-46.20"/>
    </edge>
    <edge id=":J1_3" function="internal">
        <lane id=":J1_3_0" index="0" speed="5.93" length="9.10" shape="-16.09,-50.73 -13.99,-49.17 -12.09,-48.84 -10.39,-49.75 -8.89,-51.90"/>
    </edge>
    <edge id=":J1_4" function="internal">
        <lane id=":J1_4_0" index="0" speed="13.89" length="19.86" shape="-18.34,-48.46 -14.16,-43.83 -11.19,-39.47 -9.44,-35.37 -8.90,-31.53"/>
    </edge>
    <edge id=":J1_5" function="internal">
        <lane id=":J1_5_0" index="0" speed="12.35" length="14.72" shape="-15.30,-31.65 -15.74,-34.18 -17.14,-37.06 -19.51,-40.31 -22.85,-43.93"/>
    </edge>
    <edge id=":J1_6" function="internal">
        <lane id=":J1_6_0" index="0" speed="13.89" length="20.84" shape="-15.30,-31.65 -14.85,-37.78 -13.71,-42.18 -11.76,-46.38 -8.89,-51.90"/>
        <lane id=":J1_6_1" index="1" speed="13.89" length="20.84" shape="-12.10,-31.59 -11.70,-37.47 -10.67,-41.42 -8.84,-45.17 -6.04,-50.46"/>
    </edge>
    <edge id=":J10_0" function="internal">
        <lane id=":J10_0_0" index="0" speed="5.58" length="11.69" shape="41.31,-119.52 40.96,-123.55 40.03,-125.09 38.53,-124.12 36.44,-120.65"/>
        <lane id=":J10_0_1" index="1" speed="8.03" length="26.22" shape="44.51,-119.55 43.73,-128.61 41.65,-132.05 38.26,-129.87 33.58,-122.08"/>
    </edge>
    <edge id=":J10_2" function="internal">
        <lane id=":J10_2_0" index="0" speed="12.54" length="36.85" shape="44.51,-119.55 45.11,-133.52 47.27,-143.48 51.00,-149.45 56.28,-151.42"/>
    </edge>
    <edge id=":J10_3" function="internal">
        <lane id=":J10_3_0" index="0" speed="11.39" length="30.18" shape="56.27,-148.22 53.80,-146.44 52.09,-141.09 51.13,-132.15 50.91,-119.63"/>
    </edge>
    <edge id=":J10_4" function="internal">
        <lane id=":J10_4_0" index="0" speed="13.89" length="35.74" shape="56.27,-148.22 51.28,-146.60 45.84,-141.71 39.94,-133.54 33.58,-122.08"/>
    </edge>
    <edge id=":J10_5" function="internal">
        <lane id=":J10_5_0" index="0" speed="13.89" length="40.63" shape="27.86,-124.96 34.65,-136.56 41.64,-144.84 48.85,-149.79 56.28,-151.42"/>
    </edge>
    <edge id=":J10_6" function="internal">
        <lane id=":J10_6_0" index="0" speed="7.68" length="23.82" shape="30.72,-123.52 35.20,-127.92 40.81,-128.43 45.62,-125.51 47.71,-119.59"/>
    </edge>
    <edge id=":J11_0" function="internal">
        <lane id=":J11_0_0" index="0" speed="6.67" length="9.43" shape="55.13,62.96 52.55,63.28 50.69,64.33 49.53,66.11 49.08,68.64"/>
    </edge>
    <edge id=":J11_1" function="internal">
        <lane id=":J11_1_0" index="0" speed="13.89" length="21.10" shape="55.13,62.96 34.04,62.62"/>
        <lane id=":J11_1_1" index="1" speed="13.89" length="21.10" shape="55.19,59.76 34.08,59.42"/>
    </edge>
    <edge id=":J11_3" function="internal">
        <lane id=":J11_3_0" index="0" speed="9.21" length="19.58" shape="55.19,59.76 49.87,58.90 46.16,56.53 44.05,52.67 43.55,47.30"/>
    </edge>
    <edge id=":J11_4" function="internal">
        <lane id=":J11_4_0" index="0" speed="6.44" length="9.03" shape="49.94,47.61 50.17,50.09 51.15,51.87 52.86,52.96 55.31,53.36"/>
    </edge>
    <edge id=":J11_5" function="internal">
        <lane id=":J11_5_0" index="0" speed="13.89" length="21.07" shape="49.94,47.61 49.08,68.64"/>
        <lane id=":J11_5_1" index="1" speed="13.89" length="21.07" shape="46.74,47.46 45.88,68.54"/>
    </edge>
    <edge id=":J11_7" function="internal">
        <lane id=":J11_7_0" index="0" speed="9.46" length="19.71" shape="46.74,47.46 45.73,52.75 43.28,56.51 39.40,58.73 34.08,59.42"/>
    </edge>
    <edge id=":J11_8" function="internal">
        <lane id=":J11_8_0" index="0" speed="6.79" length="9.66" shape="34.16,53.03 36.76,52.69 38.66,51.59 39.86,49.75 40.35,47.15"/>
    </edge>
    <edge id=":J11_9" function="internal">
        <lane id=":J11_9_0" index="0" speed="13.89" length="21.14" shape="34.16,53.03 55.31,53.36"/>
        <lane id=":J11_9_1" index="1" speed="13.89" length="21.14" shape="34.12,56.22 55.25,56.56"/>
    </edge>
    <edge id=":J11_11" function="internal">
        <lane id=":J11_11_0" index="0" speed="9.23" length="19.50" shape="34.12,56.22 39.42,57.05 43.14,59.38 45.30,63.21 45.88,68.54"/>
    </edge>
    <edge id=":J11_12" function="internal">
        <lane id=":J11_12_0" index="0" speed="6.46" length="9.03" shape="39.49,68.33 39.22,65.86 38.22,64.09 36.49,63.01 34.04,62.62"/>
    </edge>
    <edge id=":J11_13" function="internal">
        <lane id=":J11_13_0" index="0" speed="13.89" length="21.17" shape="39.49,68.33 40.35,47.15"/>
        <lane id=":J11_13_1" index="1" speed="13.89" length="21.17" shape="42.69,68.43 43.55,47.30"/>
    </edge>
    <edge id=":J11_15" function="internal">
        <lane id=":J11_15_0" index="0" speed="9.37" length="19.65" shape="42.69,68.43 43.62,63.15 46.03,59.41 49.90,57.22 55.25,56.56"/>
    </edge>
    <edge id=":J12_0" function="internal">
        <lane id=":J12_0_0" index="0" speed="6.68" length="9.46" shape="-0.60,4.55 -3.14,4.91 -4.97,6.01 -6.09,7.85 -6.49,10.43"/>
    </edge>
    <edge id=":J12_1" function="internal">
        <lane id=":J12_1_0" index="0" speed="13.89" length="21.07" shape="-0.60,4.55 -21.64,4.68"/>
        <lane id=":J12_1_1" index="1" speed="13.89" length="21.07" shape="-0.59,1.35 -21.69,1.48"/>
    </edge>
    <edge id=":J12_3" function="internal">
        <lane id=":J12_3_0" index="0" speed="9.23" length="19.48" shape="-0.59,1.35 -5.89,0.58 -9.64,-1.70 -11.84,-5.50 -12.50,-10.81"/>
    </edge>
    <edge id=":J12_4" function="internal">
        <lane id=":J12_4_0" index="0" speed="6.47" length="9.03" shape="-6.10,-10.69 -5.79,-8.22 -4.77,-6.46 -3.03,-5.41 -0.58,-5.05"/>
    </edge>
    <edge id=":J12_5" function="internal">
        <lane id=":J12_5_0" index="0" speed="13.89" length="21.12" shape="-6.10,-10.69 -6.49,10.43"/>
        <lane id=":J12_5_1" index="1" speed="13.89" length="21.12" shape="-9.30,-10.75 -9.69,10.37"/>
    </edge>
    <edge id=":J12_7" function="internal">
        <lane id=":J12_7_0" index="0" speed="9.45" length="19.71" shape="-9.30,-10.75 -10.16,-5.46 -12.51,-1.66 -16.35,0.65 -21.69,1.48"/>
    </edge>
    <edge id=":J12_8" function="internal">
        <lane id=":J12_8_0" index="0" speed="6.78" length="9.63" shape="-21.78,-4.92 -19.16,-5.32 -17.27,-6.45 -16.12,-8.30 -15.70,-10.87"/>
    </edge>
    <edge id=":J12_9" function="internal">
        <lane id=":J12_9_0" index="0" speed="13.89" length="21.17" shape="-21.78,-4.92 -0.58,-5.05"/>
        <lane id=":J12_9_1" index="1" speed="13.89" length="21.17" shape="-21.73,-1.72 -0.59,-1.85"/>
    </edge>
    <edge id=":J12_11" function="internal">
        <lane id=":J12_11_0" index="0" speed="9.21" length="19.60" shape="-21.73,-1.72 -16.38,-1.03 -12.59,1.21 -10.36,5.01 -9.69,10.37"/>
    </edge>
    <edge id=":J12_12" function="internal">
        <lane id=":J12_12_0" index="0" speed="6.44" length="9.03" shape="-16.09,10.25 -16.40,7.78 -17.43,6.03 -19.18,5.00 -21.64,4.68"/>
    </edge>
    <edge id=":J12_13" function="internal">
        <lane id=":J12_13_0" index="0" speed="13.89" length="21.12" shape="-16.09,10.25 -15.70,-10.87"/>
        <lane id=":J12_13_1" index="1" speed="13.89" length="21.12" shape="-12.89,10.31 -12.50,-10.81"/>
    </edge>
    <edge id=":J12_15" function="internal">
        <lane id=":J12_15_0" index="0" speed="9.38" length="19.66" shape="-12.89,10.31 -12.04,4.98 -9.71,1.18 -5.89,-1.10 -0.59,-1.85"/>
    </edge>
    <edge id=":J21_0" function="internal">
        <lane id=":J21_0_0" index="0" speed="7.31" length="7.71" shape="-75.51,5.43 -77.36,5.72 -78.96,6.53 -80.31,7.86 -81.40,9.71"/>
    </edge>
    <edge id=":J21_1" function="internal">
        <lane id=":J21_1_0" index="0" speed="13.89" length="16.65" shape="-75.51,5.43 -80.72,5.31 -84.32,4.50 -87.50,2.60 -91.49,-0.80"/>
        <lane id=":J21_1_1" index="1" speed="13.45" length="16.65" shape="-75.55,2.23 -80.06,2.12 -83.16,1.41 -85.91,-0.24 -89.36,-3.19"/>
    </edge>
    <edge id=":J21_3" function="internal">
        <lane id=":J21_3_0" index="0" speed="11.21" length="11.82" shape="-85.10,-7.96 -82.74,-5.93 -80.86,-4.77 -78.73,-4.25 -75.64,-4.17"/>
        <lane id=":J21_3_1" index="1" speed="12.38" length="11.82" shape="-87.23,-5.58 -84.32,-3.09 -82.01,-1.68 -79.40,-1.06 -75.60,-0.97"/>
    </edge>
    <edge id=":J21_5" function="internal">
        <lane id=":J21_5_0" index="0" speed="9.39" length="15.39" shape="-87.23,-5.58 -84.57,-2.49 -83.20,0.86 -83.11,4.48 -84.31,8.38"/>
    </edge>
    <edge id=":J21_6" function="internal">
        <lane id=":J21_6_0" index="0" speed="6.60" length="7.18" shape="-90.13,5.71 -89.57,3.89 -89.61,2.20 -90.25,0.64 -91.49,-0.80"/>
    </edge>
    <edge id=":J21_7" function="internal">
        <lane id=":J21_7_0" index="0" speed="9.97" length="14.96" shape="-87.22,7.04 -85.14,3.58 -82.51,1.09 -79.33,-0.43 -75.60,-0.97"/>
    </edge>
    <edge id=":J22_0" function="internal">
        <lane id=":J22_0_0" index="0" speed="6.67" length="9.39" shape="57.59,4.93 55.14,5.24 53.34,6.32 52.21,8.16 51.73,10.78"/>
    </edge>
    <edge id=":J22_1" function="internal">
        <lane id=":J22_1_0" index="0" speed="13.89" length="20.89" shape="57.59,4.93 36.74,4.63"/>
        <lane id=":J22_1_1" index="1" speed="13.89" length="20.89" shape="57.68,1.74 36.75,1.43"/>
    </edge>
    <edge id=":J22_3" function="internal">
        <lane id=":J22_3_0" index="0" speed="9.41" length="19.42" shape="57.68,1.74 52.51,0.84 48.79,-1.52 46.54,-5.34 45.74,-10.62"/>
    </edge>
    <edge id=":J22_4" function="internal">
        <lane id=":J22_4_0" index="0" speed="6.71" length="9.39" shape="52.14,-10.69 52.52,-8.11 53.60,-6.25 55.38,-5.10 57.86,-4.66"/>
    </edge>
    <edge id=":J22_5" function="internal">
        <lane id=":J22_5_0" index="0" speed="13.89" length="21.37" shape="52.14,-10.69 51.73,10.78"/>
        <lane id=":J22_5_1" index="1" speed="13.89" length="21.37" shape="48.94,-10.65 48.54,10.62"/>
    </edge>
    <edge id=":J22_7" function="internal">
        <lane id=":J22_7_0" index="0" speed="9.28" length="19.63" shape="48.94,-10.65 48.23,-5.36 45.96,-1.58 42.14,0.68 36.75,1.43"/>
    </edge>
    <edge id=":J22_8" function="internal">
        <lane id=":J22_8_0" index="0" speed="6.53" length="9.21" shape="36.76,-4.97 39.32,-5.32 41.13,-6.37 42.20,-8.12 42.54,-10.58"/>
    </edge>
    <edge id=":J22_9" function="internal">
        <lane id=":J22_9_0" index="0" speed="13.89" length="21.05" shape="36.76,-4.97 57.86,-4.66"/>
        <lane id=":J22_9_1" index="1" speed="13.89" length="21.05" shape="36.76,-1.77 57.77,-1.46"/>
    </edge>
    <edge id=":J22_11" function="internal">
        <lane id=":J22_11_0" index="0" speed="9.19" length="19.71" shape="36.76,-1.77 42.14,-0.99 45.89,1.34 48.03,5.21 48.54,10.62"/>
    </edge>
    <edge id=":J22_12" function="internal">
        <lane id=":J22_12_0" index="0" speed="6.41" length="9.04" shape="42.14,10.31 41.91,7.83 40.93,6.05 39.21,4.99 36.74,4.63"/>
    </edge>
    <edge id=":J22_13" function="internal">
        <lane id=":J22_13_0" index="0" speed="13.89" length="20.99" shape="42.14,10.31 42.54,-10.58"/>
        <lane id=":J22_13_1" index="1" speed="13.89" length="20.99" shape="45.34,10.46 45.74,-10.62"/>
    </edge>
    <edge id=":J22_15" function="internal">
        <lane id=":J22_15_0" index="0" speed="9.37" length="19.55" shape="45.34,10.46 46.34,5.12 48.75,1.35 52.56,-0.84 57.77,-1.46"/>
    </edge>
    <edge id=":J5_0" function="internal">
        <lane id=":J5_0_0" index="0" speed="13.17" length="15.90" shape="-115.68,-22.39 -118.83,-25.45 -121.18,-27.60 -123.85,-28.85 -128.02,-29.22"/>
        <lane id=":J5_0_1" index="1" speed="13.89" length="15.90" shape="-113.55,-24.78 -117.24,-28.29 -120.02,-30.68 -123.19,-32.04 -128.06,-32.42"/>
    </edge>
    <edge id=":J5_2" function="internal">
        <lane id=":J5_2_0" index="0" speed="8.94" length="21.38" shape="-113.55,-24.78 -117.46,-29.43 -118.57,-33.90 -116.88,-38.18 -112.38,-42.27"/>
    </edge>
    <edge id=":J5_3" function="internal">
        <lane id=":J5_3_0" index="0" speed="6.04" length="9.07" shape="-108.79,-36.98 -110.70,-35.24 -111.42,-33.42 -110.95,-31.53 -109.28,-29.55"/>
    </edge>
    <edge id=":J5_4" function="internal">
        <lane id=":J5_4_0" index="0" speed="13.89" length="20.32" shape="-108.79,-36.98 -113.88,-33.41 -117.76,-31.04 -121.96,-29.70 -128.02,-29.22"/>
        <lane id=":J5_4_1" index="1" speed="13.89" length="20.32" shape="-110.58,-39.62 -115.28,-36.28 -118.71,-34.08 -122.44,-32.85 -128.06,-32.42"/>
    </edge>
    <edge id=":J5_6" function="internal">
        <lane id=":J5_6_0" index="0" speed="13.89" length="16.58" shape="-128.13,-38.87 -123.63,-39.23 -120.66,-40.31 -117.94,-42.18 -114.17,-44.92"/>
        <lane id=":J5_6_1" index="1" speed="13.89" length="16.58" shape="-128.09,-35.67 -123.04,-36.05 -119.69,-37.19 -116.61,-39.23 -112.38,-42.27"/>
    </edge>
    <edge id=":J5_8" function="internal">
        <lane id=":J5_8_0" index="0" speed="13.89" length="19.49" shape="-128.09,-35.67 -122.52,-35.24 -118.86,-33.77 -115.65,-31.13 -111.41,-27.16"/>
    </edge>
    <edge id=":J6_0" function="internal">
        <lane id=":J6_0_0" index="0" speed="7.46" length="12.15" shape="-94.25,61.34 -98.24,61.67 -101.10,62.73 -102.83,64.52 -103.44,67.05"/>
    </edge>
    <edge id=":J6_1" function="internal">
        <lane id=":J6_1_0" index="0" speed="13.89" length="24.38" shape="-94.25,61.34 -118.60,61.34"/>
        <lane id=":J6_1_1" index="1" speed="13.89" length="24.38" shape="-94.22,58.14 -118.63,58.14"/>
    </edge>
    <edge id=":J6_3" function="internal">
        <lane id=":J6_3_0" index="0" speed="8.83" length="23.13" shape="-94.22,58.14 -100.95,57.15 -104.78,54.32 -105.72,49.65 -103.76,43.13"/>
    </edge>
    <edge id=":J6_4" function="internal">
        <lane id=":J6_4_0" index="0" speed="5.79" length="9.15" shape="-97.94,45.80 -98.72,48.38 -98.35,50.23 -96.83,51.35 -94.17,51.74"/>
    </edge>
    <edge id=":J6_5" function="internal">
        <lane id=":J6_5_0" index="0" speed="13.89" length="22.85" shape="-97.94,45.80 -100.54,51.55 -102.20,56.08 -103.11,60.79 -103.44,67.05"/>
        <lane id=":J6_5_1" index="1" speed="13.89" length="22.85" shape="-100.85,44.47 -103.49,50.42 -105.25,55.40 -106.26,60.54 -106.64,67.00"/>
    </edge>
    <edge id=":J6_7" function="internal">
        <lane id=":J6_7_0" index="0" speed="12.44" length="23.73" shape="-100.85,44.47 -104.29,50.40 -108.40,54.66 -113.18,57.24 -118.63,58.14"/>
    </edge>
    <edge id=":J6_8" function="internal">
        <lane id=":J6_8_0" index="0" speed="10.43" length="16.49" shape="-118.71,51.74 -115.13,51.09 -111.94,49.21 -109.12,46.12 -106.67,41.80"/>
    </edge>
    <edge id=":J6_9" function="internal">
        <lane id=":J6_9_0" index="0" speed="13.89" length="24.51" shape="-118.71,51.74 -94.17,51.74"/>
        <lane id=":J6_9_1" index="1" speed="13.89" length="24.51" shape="-118.67,54.94 -94.20,54.94"/>
    </edge>
    <edge id=":J6_11" function="internal">
        <lane id=":J6_11_0" index="0" speed="9.22" length="19.54" shape="-118.67,54.94 -113.34,55.64 -109.56,57.89 -107.32,61.67 -106.64,67.00"/>
    </edge>
    <edge id=":J6_12" function="internal">
        <lane id=":J6_12_0" index="0" speed="6.45" length="9.03" shape="-113.03,66.92 -113.35,64.45 -114.39,62.70 -116.13,61.66 -118.60,61.34"/>
    </edge>
    <edge id=":J6_13" function="internal">
        <lane id=":J6_13_0" index="0" speed="13.89" length="25.47" shape="-113.03,66.92 -112.57,60.05 -111.36,54.02 -109.40,48.15 -106.67,41.80"/>
        <lane id=":J6_13_1" index="1" speed="13.89" length="25.47" shape="-109.84,66.96 -109.41,60.30 -108.31,54.71 -106.45,49.29 -103.76,43.13"/>
    </edge>
    <edge id=":J6_15" function="internal">
        <lane id=":J6_15_0" index="0" speed="9.94" length="22.37" shape="-109.84,66.96 -108.80,61.65 -105.84,57.88 -100.98,55.64 -94.20,54.94"/>
    </edge>
    <edge id=":J7_0" function="internal">
        <lane id=":J7_0_0" index="0" speed="6.55" length="7.82" shape="-50.28,-71.15 -51.95,-72.41 -53.68,-72.94 -55.49,-72.74 -57.36,-71.82"/>
    </edge>
    <edge id=":J7_1" function="internal">
        <lane id=":J7_1_0" index="0" speed="13.89" length="17.36" shape="-50.28,-71.15 -54.11,-75.07 -56.40,-78.22 -57.54,-81.86 -57.94,-87.26"/>
        <lane id=":J7_1_1" index="1" speed="13.45" length="17.36" shape="-48.02,-73.42 -51.36,-76.81 -53.36,-79.53 -54.38,-82.67 -54.74,-87.34"/>
    </edge>
    <edge id=":J7_3" function="internal">
        <lane id=":J7_3_0" index="0" speed="11.24" length="12.39" shape="-48.34,-87.50 -48.06,-84.28 -47.30,-82.14 -45.85,-80.29 -43.51,-77.96"/>
        <lane id=":J7_3_1" index="1" speed="12.39" length="12.39" shape="-51.54,-87.42 -51.22,-83.48 -50.33,-80.83 -48.60,-78.55 -45.77,-75.69"/>
    </edge>
    <edge id=":J7_5" function="internal">
        <lane id=":J7_5_0" index="0" speed="11.01" length="15.69" shape="-51.54,-87.42 -51.94,-83.73 -53.35,-80.35 -55.75,-77.26 -59.16,-74.46"/>
    </edge>
    <edge id=":J7_6" function="internal">
        <lane id=":J7_6_0" index="0" speed="8.58" length="9.28" shape="-62.75,-79.76 -60.60,-81.48 -59.09,-83.30 -58.20,-85.23 -57.94,-87.26"/>
        <lane id=":J7_6_1" index="1" speed="9.87" length="12.49" shape="-60.95,-77.11 -58.18,-79.37 -56.22,-81.82 -55.07,-84.48 -54.74,-87.34"/>
    </edge>
    <edge id=":J7_8" function="internal">
        <lane id=":J7_8_0" index="0" speed="9.33" length="16.75" shape="-60.95,-77.11 -56.94,-79.10 -53.07,-79.53 -49.35,-78.39 -45.77,-75.69"/>
    </edge>

    <edge id="-E0" from="J12" to="J0" priority="-1">
        <lane id="-E0_0" index="0" speed="13.89" length="36.46" shape="-6.49,10.43 -7.16,46.88"/>
        <lane id="-E0_1" index="1" speed="13.89" length="36.46" shape="-9.69,10.37 -10.36,46.83"/>
    </edge>
    <edge id="-E0.55" from="J1" to="J12" priority="-1">
        <lane id="-E0.55_0" index="0" speed="13.89" length="20.78" shape="-5.70,-31.46 -6.10,-10.69"/>
        <lane id="-E0.55_1" index="1" speed="13.89" length="20.78" shape="-8.90,-31.53 -9.30,-10.75"/>
    </edge>
    <edge id="-E10" from="J14" to="J6" priority="-1">
        <lane id="-E10_0" index="0" speed="13.89" length="86.05" shape="-114.22,152.95 -113.03,66.92"/>
        <lane id="-E10_1" index="1" speed="13.89" length="86.05" shape="-111.02,153.00 -109.84,66.96"/>
    </edge>
    <edge id="-E11" from="J15" to="J0" priority="-1">
        <lane id="-E11_0" index="0" speed="13.89" length="85.18" shape="-20.24,152.76 -17.31,67.63"/>
        <lane id="-E11_1" index="1" speed="13.89" length="85.18" shape="-17.04,152.87 -14.11,67.74"/>
    </edge>
    <edge id="-E12" from="J16" to="J11" priority="-1">
        <lane id="-E12_0" index="0" speed="13.89" length="84.51" shape="36.71,152.79 39.49,68.33"/>
        <lane id="-E12_1" index="1" speed="13.89" length="84.51" shape="39.91,152.90 42.69,68.43"/>
    </edge>
    <edge id="-E13" from="J17" to="J11" priority="-1">
        <lane id="-E13_0" index="0" speed="13.89" length="100.07" shape="155.18,64.89 55.13,62.96"/>
        <lane id="-E13_1" index="1" speed="13.89" length="100.07" shape="155.24,61.69 55.19,59.76"/>
    </edge>
    <edge id="-E15" from="J19" to="J5" priority="-1">
        <lane id="-E15_0" index="0" speed="13.89" length="130.07" shape="-258.19,-38.35 -128.13,-38.87"/>
        <lane id="-E15_1" index="1" speed="13.89" length="130.07" shape="-258.18,-35.15 -128.09,-35.67"/>
    </edge>
    <edge id="-E16" from="J10" to="J1" priority="-1" shape="45.77,-149.87 23.11,-104.83 -10.37,-38.29">
        <lane id="-E16_0" index="0" speed="13.89" length="81.78" shape="36.44,-120.65 27.40,-102.67 -0.32,-47.59"/>
        <lane id="-E16_1" index="1" speed="13.89" length="81.78" shape="33.58,-122.08 24.54,-104.11 -3.18,-49.03"/>
    </edge>
    <edge id="-E17" from="J21" to="J6" priority="-1">
        <lane id="-E17_0" index="0" speed="13.89" length="39.70" shape="-81.40,9.71 -97.94,45.80"/>
        <lane id="-E17_1" index="1" speed="13.89" length="39.70" shape="-84.31,8.38 -100.85,44.47"/>
    </edge>
    <edge id="-E18" from="J5" to="J21" priority="-1">
        <lane id="-E18_0" index="0" speed="13.89" length="32.42" shape="-109.28,-29.55 -85.10,-7.96"/>
        <lane id="-E18_1" index="1" speed="13.89" length="32.42" shape="-111.41,-27.16 -87.23,-5.58"/>
    </edge>
    <edge id="-E19" from="J12" to="J21" priority="-1">
        <lane id="-E19_0" index="0" speed="13.89" length="53.87" shape="-21.64,4.68 -75.51,5.43"/>
        <lane id="-E19_1" index="1" speed="13.89" length="53.87" shape="-21.69,1.48 -75.55,2.23"/>
    </edge>
    <edge id="-E20" from="J22" to="J12" priority="-1">
        <lane id="-E20_0" index="0" speed="13.89" length="37.34" shape="36.74,4.63 -0.60,4.55"/>
        <lane id="-E20_1" index="1" speed="13.89" length="37.34" shape="36.75,1.43 -0.59,1.35"/>
    </edge>
    <edge id="-E21" from="J18" to="J22" priority="-1">
        <lane id="-E21_0" index="0" speed="13.89" length="106.27" shape="163.82,7.90 57.59,4.93"/>
        <lane id="-E21_1" index="1" speed="13.89" length="106.27" shape="163.91,4.70 57.68,1.74"/>
    </edge>
    <edge id="-E22" from="J22" to="J11" priority="-1">
        <lane id="-E22_0" index="0" speed="13.89" length="36.88" shape="51.73,10.78 49.94,47.61"/>
        <lane id="-E22_1" index="1" speed="13.89" length="36.88" shape="48.54,10.62 46.74,47.46"/>
    </edge>
    <edge id="-E23" from="J10" to="J22" priority="-1">
        <lane id="-E23_0" index="0" speed="13.89" length="108.94" shape="50.91,-119.63 52.14,-10.69"/>
        <lane id="-E23_1" index="1" speed="13.89" length="108.94" shape="47.71,-119.59 48.94,-10.65"/>
    </edge>
    <edge id="-E24" from="J23" to="J10" priority="-1">
        <lane id="-E24_0" index="0" speed="13.89" length="172.12" shape="228.37,-144.23 56.25,-145.02"/>
        <lane id="-E24_1" index="1" speed="13.89" length="172.12" shape="228.38,-147.43 56.27,-148.22"/>
    </edge>
    <edge id="-E4" from="J7" to="J5" priority="-1">
        <lane id="-E4_0" index="0" speed="13.89" length="62.12" shape="-57.36,-71.82 -108.79,-36.98"/>
        <lane id="-E4_1" index="1" speed="13.89" length="62.12" shape="-59.16,-74.46 -110.58,-39.62"/>
    </edge>
    <edge id="-E5" from="J7" to="J1" priority="-1">
        <lane id="-E5_0" index="0" speed="13.89" length="38.65" shape="-43.51,-77.96 -16.09,-50.73"/>
        <lane id="-E5_1" index="1" speed="13.89" length="38.65" shape="-45.77,-75.69 -18.34,-48.46"/>
    </edge>
    <edge id="-E6" from="J8" to="J7" priority="-1" shape="-49.85,-207.75 -54.18,-129.67 -52.97,-80.59">
        <lane id="-E6_0" index="0" speed="13.89" length="120.25" shape="-45.06,-207.48 -49.38,-129.60 -48.34,-87.50"/>
        <lane id="-E6_1" index="1" speed="13.89" length="120.25" shape="-48.25,-207.66 -52.58,-129.65 -51.54,-87.42"/>
    </edge>
    <edge id="-E8" from="J11" to="J0" priority="-1">
        <lane id="-E8_0" index="0" speed="13.89" length="35.82" shape="34.04,62.62 -1.78,62.16"/>
        <lane id="-E8_1" index="1" speed="13.89" length="35.82" shape="34.08,59.42 -1.74,58.96"/>
    </edge>
    <edge id="-E80" from="J0" to="J6" priority="-1">
        <lane id="-E80_0" index="0" speed="13.89" length="71.49" shape="-22.76,61.94 -94.25,61.34"/>
        <lane id="-E80_1" index="1" speed="13.89" length="71.49" shape="-22.73,58.74 -94.22,58.14"/>
    </edge>
    <edge id="-E9" from="J13" to="J6" priority="-1">
        <lane id="-E9_0" index="0" speed="13.89" length="121.24" shape="-239.93,53.11 -118.71,51.74"/>
        <lane id="-E9_1" index="1" speed="13.89" length="121.24" shape="-239.90,56.31 -118.67,54.94"/>
    </edge>
    <edge id="E0" from="J0" to="J12" priority="-1" shape="-12.15,57.23 -12.02,50.14 -11.10,-0.27">
        <lane id="E0_0" index="0" speed="13.89" length="36.46" shape="-16.76,46.71 -16.09,10.25"/>
        <lane id="E0_1" index="1" speed="13.89" length="36.46" shape="-13.56,46.77 -12.89,10.31"/>
    </edge>
    <edge id="E0.55" from="J12" to="J1" priority="-1">
        <lane id="E0.55_0" index="0" speed="13.89" length="20.78" shape="-15.70,-10.87 -15.30,-31.65"/>
        <lane id="E0.55_1" index="1" speed="13.89" length="20.78" shape="-12.50,-10.81 -12.10,-31.59"/>
    </edge>
    <edge id="E10" from="J6" to="J14" priority="-1">
        <lane id="E10_0" index="0" speed="13.89" length="86.05" shape="-103.44,67.05 -104.62,153.09"/>
        <lane id="E10_1" index="1" speed="13.89" length="86.05" shape="-106.64,67.00 -107.82,153.04"/>
    </edge>
    <edge id="E11" from="J0" to="J15" priority="-1">
        <lane id="E11_0" index="0" speed="13.89" length="85.18" shape="-7.72,67.96 -10.64,153.08"/>
        <lane id="E11_1" index="1" speed="13.89" length="85.18" shape="-10.91,67.85 -13.84,152.97"/>
    </edge>
    <edge id="E12" from="J11" to="J16" priority="-1">
        <lane id="E12_0" index="0" speed="13.89" length="84.51" shape="49.08,68.64 46.31,153.11"/>
        <lane id="E12_1" index="1" speed="13.89" length="84.51" shape="45.88,68.54 43.11,153.00"/>
    </edge>
    <edge id="E13" from="J11" to="J17" priority="-1">