<?xml version="1.0" encoding="UTF-8"?>

<!-- generated on 2025-12-05 16:42:01 by Eclipse SUMO netedit Version 1.24.0
-->

<neteditConfiguration xmlns:xsi="http://www.w3.org/2001/XMLSchema-instance" xsi:noNamespaceSchemaLocation="http://sumo.dlr.de/xsd/neteditConfiguration.xsd">

    <input>
        <sumocfg-file value="k1_6h_weekday.sumocfg"/>
        <route-files value="k1_routes_6h_weekday.rou.xml"/>
        <sumo-net-file value="k1.net.xml"/>
    </input>

    <output>
        <tls-file value="D:\Codes\Projects\Traffic-Light-Automation\s1\k1.ttl.xml"/>
    </output>

    <processing>
        <geometry.min-radius.fix.railways value="false"/>
        <geometry.avoid-overlap value="false"/>
        <geometry.max-grade.fix value="false"/>
        <offset.disable-normalization value="true"/>
        <lefthand value="0"/>
    </processing>

    <junctions>
        <no-turnarounds value="true"/>
        <junctions.corner-detail value="5"/>
        <junctions.limit-turn-speed value="5.50"/>
        <rectangular-lane-cut value="0"/>
    </junctions>

    <pedestrian>
        <walkingareas value="0"/>
    </pedestrian>

</neteditConfiguration>
