<?xml version="1.0" encoding="UTF-8"?>

<!-- 12-Hour Heavy Traffic Configuration -->

<configuration xmlns:xsi="http://www.w3.org/2001/XMLSchema-instance" xsi:noNamespaceSchemaLocation="http://sumo.dlr.de/xsd/sumoConfiguration.xsd">
    <input>
        <net-file value="k1.net.xml"/>
        <route-files value="k1_routes_12h_heavy.rou.xml"/>
    </input>
    <time>
        <begin value="0"/>
        <end value="43200"/>
        <step-length value="1"/>
    </time>
    <processing>
        <time-to-teleport value="300"/>
        <collision.action value="warn"/>
    </processing>
    <report>
        <verbose value="false"/>
        <no-step-log value="true"/>
    </report>
</configuration>
