<?xml version="1.0" encoding="UTF-8"?>
<configuration xmlns:xsi="http://www.w3.org/2001/XMLSchema-instance" xsi:noNamespaceSchemaLocation="http://sumo.dlr.de/xsd/sumoConfiguration.xsd">
    <input>
        <net-file value="k1.net.xml"/>
        <route-files value="k1_routes_24h_weekday.rou.xml"/>
    </input>
    <time>
        <begin value="0"/>
        <end value="86400"/>
    </time>
    <processing>
        <time-to-teleport value="-1"/>
        <ignore-route-errors value="true"/>
    </processing>
</configuration>
