<?xml version="1.0" encoding="UTF-8"?>

<!-- SUMO Configuration for 3-Hour Time-Varying Traffic Training -->

<configuration xmlns:xsi="http://www.w3.org/2001/XMLSchema-instance" xsi:noNamespaceSchemaLocation="http://sumo.dlr.de/xsd/sumoConfiguration.xsd">

    <input>
        <net-file value="k1.net.xml"/>
        <route-files value="k1_routes_3h_varying.rou.xml"/>
    </input>

    <time>
        <begin value="0"/>
        <end value="10800"/>
        <step-length value="1.0"/>
    </time>

    <processing>
        <time-to-teleport value="-1"/>
        <max-depart-delay value="300"/>
    </processing>

    <report>
        <verbose value="false"/>
        <no-step-log value="true"/>
    </report>

</configuration>
