<?xml version="1.0" encoding="UTF-8"?>

<!-- generated on 2025-12-05 16:42:00 by Eclipse SUMO sumo Version 1.24.0
-->

<sumoConfiguration xmlns:xsi="http://www.w3.org/2001/XMLSchema-instance" xsi:noNamespaceSchemaLocation="http://sumo.dlr.de/xsd/sumoConfiguration.xsd">

    <input>
        <net-file value="k1.net.xml"/>
        <route-files value="k1_routes_6h_weekday.rou.xml"/>
    </input>

    <time>
        <begin value="0"/>
        <end value="21600"/>
    </time>

    <processing>
        <time-to-teleport value="-1"/>
        <max-depart-delay value="300"/>
    </processing>

    <routing>
        <routing-algorithm value="dijkstra"/>
        <device.rerouting.probability value="0"/>
    </routing>

    <report>
        <verbose value="true"/>
        <no-step-log value="true"/>
    </report>

</sumoConfiguration>
