<?xml version="1.0" encoding="UTF-8"?>
<sumoConfiguration xmlns:xsi="http://www.w3.org/2001/XMLSchema-instance" xsi:noNamespaceSchemaLocation="http://sumo.dlr.de/xsd/sumoConfiguration.xsd">
    <input>
        <net-file value="k1.net.xml"/>
        <route-files value="k1_routes_6h_gridlock.rou.xml"/>
    </input>
</sumoConfiguration>
