<?xml version='1.0' encoding='utf-8'?>
<routes xmlns:xsi="http://www.w3.org/2001/XMLSchema-instance" xsi:noNamespaceSchemaLocation="http://sumo.dlr.de/xsd/routes_file.xsd">
    <!-- INCIDENT SCENARIO: Asymmetric traffic flow -->
    <vType id="bus" vClass="bus" />
    <vType id="passenger" vClass="passenger" />
    <vType id="truck" vClass="truck" />
    <flow id="inc_r_E9_E13_early_morning" type="passenger" begin="0" end="3600" from="-E9" to="E13" via="E8 E8.59" vehsPerHour="14" />
    <flow id="inc_r_E9_E13_morning_peak" type="passenger" begin="3600" end="7200" from="-E9" to="E13" via="E8 E8.59" vehsPerHour="43" />
    <flow id="inc_r_E9_E13_midday" type="passenger" begin="7200" end="10800" from="-E9" to="E13" via="E8 E8.59" vehsPerHour="27" />
    <flow id="inc_r_E9_E13_afternoon" type="passenger" begin="10800" end="14400" from="-E9" to="E13" via="E8 E8.59" vehsPerHour="24" />
    <flow id="inc_r_E9_E13_evening_peak" type="passenger" begin="14400" end="18000" from="-E9" to="E13" via="E8 E8.59" vehsPerHour="46" />
    <flow id="inc_r_E9_E13_night" type="passenger" begin="18000" end="21600" from="-E9" to="E13" via="E8 E8.59" vehsPerHour="11" />
    <flow id="inc_r_E9_E6_early_morning" type="passenger" begin="0" end="3600" from="-E9" to="E6" via="E8 E0 E0.55 E5" vehsPerHour="12" />
    <flow id="inc_r_E9_E6_morning_peak" type="passenger" begin="3600" end="7200" from="-E9" to="E6" via="E8 E0 E0.55 E5" vehsPerHour="38" />
    <flow id="inc_r_E9_E6_midday" type="passenger" begin="7200" end="10800" from="-E9" to="E6" via="E8 E0 E0.55 E5" vehsPerHour="24" />
    <flow id="inc_r_E9_E6_afternoon" type="passenger" begin="10800" end="14400" from="-E9" to="E6" via="E8 E0 E0.55 E5" vehsPerHour="22" />
    <flow id="inc_r_E9_E6_evening_peak" type="passenger" begin="14400" end="18000" from="-E9" to="E6" via="E8 E0 E0.55 E5" vehsPerHour="41" />
    <flow id="inc_r_E9_E6_night" type="passenger" begin="18000" end="21600" from="-E9" to="E6" via="E8 E0 E0.55 E5" vehsPerHour="10" />
    <flow id="inc_r_E9_E24_early_morning" type="passenger" begin="0" end="3600" from="-E9" to="E24" via="E8 E0 E0.55 E16" vehsPerHour="50" />
    <flow id="inc_r_E9_E24_morning_peak" type="passenger" begin="3600" end="7200" from="-E9" to="E24" via="E8 E0 E0.55 E16" vehsPerHour="160" />
    <flow id="inc_r_E9_E24_midday" type="passenger" begin="7200" end="10800" from="-E9" to="E24" via="E8 E0 E0.55 E16" vehsPerHour="100" />
    <flow id="inc_r_E9_E24_afternoon" type="passenger" begin="10800" end="14400" from="-E9" to="E24" via="E8 E0 E0.55 E16" vehsPerHour="90" />
    <flow id="inc_r_E9_E24_evening_peak" type="passenger" begin="14400" end="18000" from="-E9" to="E24" via="E8 E0 E0.55 E16" vehsPerHour="170" />
    <flow id="inc_r_E9_E24_night" type="passenger" begin="18000" end="21600" from="-E9" to="E24" via="E8 E0 E0.55 E16" vehsPerHour="40" />
    <flow id="inc_r_E9_E21_early_morning" type="passenger" begin="0" end="3600" from="-E9" to="E21" via="E17 E19 E20" vehsPerHour="55" />
    <flow id="inc_r_E9_E21_morning_peak" type="passenger" begin="3600" end="7200" from="-E9" to="E21" via="E17 E19 E20" vehsPerHour="176" />
    <flow id="inc_r_E9_E21_midday" type="passenger" begin="7200" end="10800" from="-E9" to="E21" via="E17 E19 E20" vehsPerHour="110" />
    <flow id="inc_r_E9_E21_afternoon" type="passenger" begin="10800" end="14400" from="-E9" to="E21" via="E17 E19 E20" vehsPerHour="99" />
    <flow id="inc_r_E9_E21_evening_peak" type="passenger" begin="14400" end="18000" from="-E9" to="E21" via="E17 E19 E20" vehsPerHour="187" />
    <flow id="inc_r_E9_E21_night" type="passenger" begin="18000" end="21600" from="-E9" to="E21" via="E17 E19 E20" vehsPerHour="44" />
    <flow id="inc_r_E9_E12_early_morning" type="passenger" begin="0" end="3600" from="-E9" to="E12" via="E8 E8.59" vehsPerHour="42" />
    <flow id="inc_r_E9_E12_morning_peak" type="passenger" begin="3600" end="7200" from="-E9" to="E12" via="E8 E8.59" vehsPerHour="134" />
    <flow id="inc_r_E9_E12_midday" type="passenger" begin="7200" end="10800" from="-E9" to="E12" via="E8 E8.59" vehsPerHour="84" />
    <flow id="inc_r_E9_E12_afternoon" type="passenger" begin="10800" end="14400" from="-E9" to="E12" via="E8 E8.59" vehsPerHour="76" />
    <flow id="inc_r_E9_E12_evening_peak" type="passenger" begin="14400" end="18000" from="-E9" to="E12" via="E8 E8.59" vehsPerHour="143" />
    <flow id="inc_r_E9_E12_night" type="passenger" begin="18000" end="21600" from="-E9" to="E12" via="E8 E8.59" vehsPerHour="34" />
    <flow id="inc_r_E9_E10_early_morning" type="passenger" begin="0" end="3600" from="-E9" to="E10" vehsPerHour="68" />
    <flow id="inc_r_E9_E10_morning_peak" type="passenger" begin="3600" end="7200" from="-E9" to="E10" vehsPerHour="220" />
    <flow id="inc_r_E9_E10_midday" type="passenger" begin="7200" end="10800" from="-E9" to="E10" vehsPerHour="137" />
    <flow id="inc_r_E9_E10_afternoon" type="passenger" begin="10800" end="14400" from="-E9" to="E10" vehsPerHour="122" />
    <flow id="inc_r_E9_E10_evening_peak" type="passenger" begin="14400" end="18000" from="-E9" to="E10" vehsPerHour="232" />
    <flow id="inc_r_E9_E10_night" type="passenger" begin="18000" end="21600" from="-E9" to="E10" vehsPerHour="54" />
    <flow id="inc_r_E10_E9_early_morning" type="passenger" begin="0" end="3600" from="-E10" to="E9" vehsPerHour="86" />
    <flow id="inc_r_E10_E9_morning_peak" type="passenger" begin="3600" end="7200" from="-E10" to="E9" vehsPerHour="277" />
    <flow id="inc_r_E10_E9_midday" type="passenger" begin="7200" end="10800" from="-E10" to="E9" vehsPerHour="173" />
    <flow id="inc_r_E10_E9_afternoon" type="passenger" begin="10800" end="14400" from="-E10" to="E9" vehsPerHour="155" />
    <flow id="inc_r_E10_E9_evening_peak" type="passenger" begin="14400" end="18000" from="-E10" to="E9" vehsPerHour="293" />
    <flow id="inc_r_E10_E9_night" type="passenger" begin="18000" end="21600" from="-E10" to="E9" vehsPerHour="68" />
    <flow id="inc_r_E10_E6_early_morning" type="passenger" begin="0" end="3600" from="-E10" to="E6" via="E17 E18 E4" vehsPerHour="63" />
    <flow id="inc_r_E10_E6_morning_peak" type="passenger" begin="3600" end="7200" from="-E10" to="E6" via="E17 E18 E4" vehsPerHour="202" />
    <flow id="inc_r_E10_E6_midday" type="passenger" begin="7200" end="10800" from="-E10" to="E6" via="E17 E18 E4" vehsPerHour="126" />
    <flow id="inc_r_E10_E6_afternoon" type="passenger" begin="10800" end="14400" from="-E10" to="E6" via="E17 E18 E4" vehsPerHour="113" />
    <flow id="inc_r_E10_E6_evening_peak" type="passenger" begin="14400" end="18000" from="-E10" to="E6" via="E17 E18 E4" vehsPerHour="214" />
    <flow id="inc_r_E10_E6_night" type="passenger" begin="18000" end="21600" from="-E10" to="E6" via="E17 E18 E4" vehsPerHour="50" />
    <flow id="inc_r_E10_E13_early_morning" type="passenger" begin="0" end="3600" from="-E10" to="E13" via="E8 E8.59" vehsPerHour="72" />
    <flow id="inc_r_E10_E13_morning_peak" type="passenger" begin="3600" end="7200" from="-E10" to="E13" via="E8 E8.59" vehsPerHour="230" />
    <flow id="inc_r_E10_E13_midday" type="passenger" begin="7200" end="10800" from="-E10" to="E13" via="E8 E8.59" vehsPerHour="144" />
    <flow id="inc_r_E10_E13_afternoon" type="passenger" begin="10800" end="14400" from="-E10" to="E13" via="E8 E8.59" vehsPerHour="130" />
    <flow id="inc_r_E10_E13_evening_peak" type="passenger" begin="14400" end="18000" from="-E10" to="E13" via="E8 E8.59" vehsPerHour="245" />
    <flow id="inc_r_E10_E13_night" type="passenger" begin="18000" end="21600" from="-E10" to="E13" via="E8 E8.59" vehsPerHour="58" />
    <flow id="inc_r_E10_E24_early_morning" type="passenger" begin="0" end="3600" from="-E10" to="E24" via="E8 E0 E0.55 E16" vehsPerHour="79" />
    <flow id="inc_r_E10_E24_morning_peak" type="passenger" begin="3600" end="7200" from="-E10" to="E24" via="E8 E0 E0.55 E16" vehsPerHour="254" />
    <flow id="inc_r_E10_E24_midday" type="passenger" begin="7200" end="10800" from="-E10" to="E24" via="E8 E0 E0.55 E16" vehsPerHour="158" />
    <flow id="inc_r_E10_E24_afternoon" type="passenger" begin="10800" end="14400" from="-E10" to="E24" via="E8 E0 E0.55 E16" vehsPerHour="142" />
    <flow id="inc_r_E10_E24_evening_peak" type="passenger" begin="14400" end="18000" from="-E10" to="E24" via="E8 E0 E0.55 E16" vehsPerHour="270" />
    <flow id="inc_r_E10_E24_night" type="passenger" begin="18000" end="21600" from="-E10" to="E24" via="E8 E0 E0.55 E16" vehsPerHour="63" />
    <flow id="inc_r_E10_E21_early_morning" type="passenger" begin="0" end="3600" from="-E10" to="E21" via="E17 E19 E20" vehsPerHour="83" />
    <flow id="inc_r_E10_E21_morning_peak" type="passenger" begin="3600" end="7200" from="-E10" to="E21" via="E17 E19 E20" vehsPerHour="265" />
    <flow id="inc_r_E10_E21_midday" type="passenger" begin="7200" end="10800" from="-E10" to="E21" via="E17 E19 E20" vehsPerHour="166" />
    <flow id="inc_r_E10_E21_afternoon" type="passenger" begin="10800" end="14400" from="-E10" to="E21" via="E17 E19 E20" vehsPerHour="149" />
    <flow id="inc_r_E10_E21_evening_peak" type="passenger" begin="14400" end="18000" from="-E10" to="E21" via="E17 E19 E20" vehsPerHour="281" />
    <flow id="inc_r_E10_E21_night" type="passenger" begin="18000" end="21600" from="-E10" to="E21" via="E17 E19 E20" vehsPerHour="67" />
    <flow id="inc_r_E6_E21_early_morning" type="passenger" begin="0" end="3600" from="-E6" to="E21" via="-E5 -E0.55 E20" vehsPerHour="94" />
    <flow id="inc_r_E6_E21_morning_peak" type="passenger" begin="3600" end="7200" from="-E6" to="E21" via="-E5 -E0.55 E20" vehsPerHour="299" />
    <flow id="inc_r_E6_E21_midday" type="passenger" begin="7200" end="10800" from="-E6" to="E21" via="-E5 -E0.55 E20" vehsPerHour="187" />
    <flow id="inc_r_E6_E21_afternoon" type="passenger" begin="10800" end="14400" from="-E6" to="E21" via="-E5 -E0.55 E20" vehsPerHour="169" />
    <flow id="inc_r_E6_E21_evening_peak" type="passenger" begin="14400" end="18000" from="-E6" to="E21" via="-E5 -E0.55 E20" vehsPerHour="319" />
    <flow id="inc_r_E6_E21_night" type="passenger" begin="18000" end="21600" from="-E6" to="E21" via="-E5 -E0.55 E20" vehsPerHour="76" />
    <flow id="inc_r_E6_E10_early_morning" type="passenger" begin="0" end="3600" from="-E6" to="E10" via="-E4 -E18 -E17" vehsPerHour="65" />
    <flow id="inc_r_E6_E10_morning_peak" type="passenger" begin="3600" end="7200" from="-E6" to="E10" via="-E4 -E18 -E17" vehsPerHour="207" />
    <flow id="inc_r_E6_E10_midday" type="passenger" begin="7200" end="10800" from="-E6" to="E10" via="-E4 -E18 -E17" vehsPerHour="130" />
    <flow id="inc_r_E6_E10_afternoon" type="passenger" begin="10800" end="14400" from="-E6" to="E10" via="-E4 -E18 -E17" vehsPerHour="117" />
    <flow id="inc_r_E6_E10_evening_peak" type="passenger" begin="14400" end="18000" from="-E6" to="E10" via="-E4 -E18 -E17" vehsPerHour="220" />
    <flow id="inc_r_E6_E10_night" type="passenger" begin="18000" end="21600" from="-E6" to="E10" via="-E4 -E18 -E17" vehsPerHour="52" />
    <flow id="inc_r_E6_E11_early_morning" type="passenger" begin="0" end="3600" from="-E6" to="E11" via="-E5 -E0.55 -E0" vehsPerHour="48" />
    <flow id="inc_r_E6_E11_morning_peak" type="passenger" begin="3600" end="7200" from="-E6" to="E11" via="-E5 -E0.55 -E0" vehsPerHour="154" />
    <flow id="inc_r_E6_E11_midday" type="passenger" begin="7200" end="10800" from="-E6" to="E11" via="-E5 -E0.55 -E0" vehsPerHour="96" />
    <flow id="inc_r_E6_E11_afternoon" type="passenger" begin="10800" end="14400" from="-E6" to="E11" via="-E5 -E0.55 -E0" vehsPerHour="86" />
    <flow id="inc_r_E6_E11_evening_peak" type="passenger" begin="14400" end="18000" from="-E6" to="E11" via="-E5 -E0.55 -E0" vehsPerHour="163" />
    <flow id="inc_r_E6_E11_night" type="passenger" begin="18000" end="21600" from="-E6" to="E11" via="-E5 -E0.55 -E0" vehsPerHour="38" />
    <flow id="inc_r_E6_E15_early_morning" type="passenger" begin="0" end="3600" from="-E6" to="E15" via="-E4" vehsPerHour="43" />
    <flow id="inc_r_E6_E15_morning_peak" type="passenger" begin="3600" end="7200" from="-E6" to="E15" via="-E4" vehsPerHour="138" />
    <flow id="inc_r_E6_E15_midday" type="passenger" begin="7200" end="10800" from="-E6" to="E15" via="-E4" vehsPerHour="86" />
    <flow id="inc_r_E6_E15_afternoon" type="passenger" begin="10800" end="14400" from="-E6" to="E15" via="-E4" vehsPerHour="77" />
    <flow id="inc_r_E6_E15_evening_peak" type="passenger" begin="14400" end="18000" from="-E6" to="E15" via="-E4" vehsPerHour="146" />
    <flow id="inc_r_E6_E15_night" type="passenger" begin="18000" end="21600" from="-E6" to="E15" via="-E4" vehsPerHour="34" />
    <flow id="inc_b_1_early_morning" type="bus" begin="0.00" from="-E15" to="E24" via="E4 -E5 E16" end="3600.00" vehsPerHour="8" />
    <flow id="inc_b_2_early_morning" type="bus" begin="0.00" from="-E15" to="E21" via="-E18 E19 E20" end="3600.00" vehsPerHour="8" />
    <flow id="inc_f_0_early_morning" type="passenger" begin="0.00" from="-E15" to="E24" via="E4 -E5 E16" end="3600.00" vehsPerHour="139" />
    <flow id="inc_f_16_early_morning" type="passenger" begin="0.00" from="-E11" to="E21" end="3600.00" vehsPerHour="89" />
    <flow id="inc_f_17_early_morning" type="passenger" begin="0.00" from="-E12" to="E15" end="3600.00" vehsPerHour="95" />
    <flow id="inc_f_19_early_morning" type="passenger" begin="0.00" from="-E13" to="E9" end="3600.00" vehsPerHour="80" />
    <flow id="inc_f_1_early_morning" type="passenger" begin="0.00" from="-E15" to="E21" via="-E18 E19 E20" end="3600.00" vehsPerHour="131" />
    <flow id="inc_f_20_early_morning" type="passenger" begin="0.00" from="-E13" to="E15" end="3600.00" vehsPerHour="103" />
    <flow id="inc_f_21_early_morning" type="passenger" begin="0.00" from="-E24" to="E12" via="-E23" end="3600.00" vehsPerHour="92" />
    <flow id="inc_f_22_early_morning" type="passenger" begin="0.00" from="-E24" to="E15" end="3600.00" vehsPerHour="99" />
    <flow id="inc_f_23_early_morning" type="passenger" begin="0.00" from="-E21" to="E15" end="3600.00" vehsPerHour="107" />
    <flow id="inc_f_24_early_morning" type="passenger" begin="0.00" from="-E21" to="E10" end="3600.00" vehsPerHour="87" />
    <flow id="inc_f_2_early_morning" type="passenger" begin="0.00" from="-E15" to="E10" via="-E18 -E17" end="3600.00" vehsPerHour="123" />
    <flow id="inc_t_1_early_morning" type="truck" begin="0.00" from="-E15" to="E10" via="-E18 -E17" end="3600.00" vehsPerHour="7" />
    <flow id="inc_b_1_morning_peak" type="bus" begin="3600.00" from="-E15" to="E24" via="E4 -E5 E16" end="7200.00" vehsPerHour="27" />
    <flow id="inc_b_2_morning_peak" type="bus" begin="3600.00" from="-E15" to="E21" via="-E18 E19 E20" end="7200.00" vehsPerHour="27" />
    <flow id="inc_f_0_morning_peak" type="passenger" begin="3600.00" from="-E15" to="E24" via="E4 -E5 E16" end="7200.00" vehsPerHour="444" />
    <flow id="inc_f_16_morning_peak" type="passenger" begin="3600.00" from="-E11" to="E21" end="7200.00" vehsPerHour="284" />
    <flow id="inc_f_17_morning_peak" type="passenger" begin="3600.00" from="-E12" to="E15" end="7200.00" vehsPerHour="305" />
    <flow id="inc_f_19_morning_peak" type="passenger" begin="3600.00" from="-E13" to="E9" end="7200.00" vehsPerHour="257" />
    <flow id="inc_f_1_morning_peak" type="passenger" begin="3600.00" from="-E15" to="E21" via="-E18 E19 E20" end="7200.00" vehsPerHour="420" />
    <flow id="inc_f_20_morning_peak" type="passenger" begin="3600.00" from="-E13" to="E15" end="7200.00" vehsPerHour="329" />
    <flow id="inc_f_21_morning_peak" type="passenger" begin="3600.00" from="-E24" to="E12" via="-E23" end="7200.00" vehsPerHour="294" />
    <flow id="inc_f_22_morning_peak" type="passenger" begin="3600.00" from="-E24" to="E15" end="7200.00" vehsPerHour="318" />
    <flow id="inc_f_23_morning_peak" type="passenger" begin="3600.00" from="-E21" to="E15" end="7200.00" vehsPerHour="344" />
    <flow id="inc_f_24_morning_peak" type="passenger" begin="3600.00" from="-E21" to="E10" end="7200.00" vehsPerHour="280" />
    <flow id="inc_f_2_morning_peak" type="passenger" begin="3600.00" from="-E15" to="E10" via="-E18 -E17" end="7200.00" vehsPerHour="393" />
    <flow id="inc_t_1_morning_peak" type="truck" begin="3600.00" from="-E15" to="E10" via="-E18 -E17" end="7200.00" vehsPerHour="23" />
    <flow id="inc_b_1_midday" type="bus" begin="7200.00" from="-E15" to="E24" via="E4 -E5 E16" end="10800.00" vehsPerHour="17" />
    <flow id="inc_b_2_midday" type="bus" begin="7200.00" from="-E15" to="E21" via="-E18 E19 E20" end="10800.00" vehsPerHour="17" />
    <flow id="inc_f_0_midday" type="passenger" begin="7200.00" from="-E15" to="E24" via="E4 -E5 E16" end="10800.00" vehsPerHour="278" />
    <flow id="inc_f_16_midday" type="passenger" begin="7200.00" from="-E11" to="E21" end="10800.00" vehsPerHour="178" />
    <flow id="inc_f_17_midday" type="passenger" begin="7200.00" from="-E12" to="E15" end="10800.00" vehsPerHour="191" />
    <flow id="inc_f_19_midday" type="passenger" begin="7200.00" from="-E13" to="E9" end="10800.00" vehsPerHour="161" />
    <flow id="inc_f_1_midday" type="passenger" begin="7200.00" from="-E15" to="E21" via="-E18 E19 E20" end="10800.00" vehsPerHour="263" />
    <flow id="inc_f_20_midday" type="passenger" begin="7200.00" from="-E13" to="E15" end="10800.00" vehsPerHour="206" />
    <flow id="inc_f_21_midday" type="passenger" begin="7200.00" from="-E24" to="E12" via="-E23" end="10800.00" vehsPerHour="184" />
    <flow id="inc_f_22_midday" type="passenger" begin="7200.00" from="-E24" to="E15" end="10800.00" vehsPerHour="199" />
    <flow id="inc_f_23_midday" type="passenger" begin="7200.00" from="-E21" to="E15" end="10800.00" vehsPerHour="215" />
    <flow id="inc_f_24_midday" type="passenger" begin="7200.00" from="-E21" to="E10" end="10800.00" vehsPerHour="175" />
    <flow id="inc_f_2_midday" type="passenger" begin="7200.00" from="-E15" to="E10" via="-E18 -E17" end="10800.00" vehsPerHour="246" />
    <flow id="inc_t_1_midday" type="truck" begin="7200.00" from="-E15" to="E10" via="-E18 -E17" end="10800.00" vehsPerHour="14" />
    <flow id="inc_b_1_afternoon" type="bus" begin="10800.00" from="-E15" to="E24" via="E4 -E5 E16" end="14400.00" vehsPerHour="15" />
    <flow id="inc_b_2_afternoon" type="bus" begin="10800.00" from="-E15" to="E21" via="-E18 E19 E20" end="14400.00" vehsPerHour="15" />
    <flow id="inc_f_0_afternoon" type="passenger" begin="10800.00" from="-E15" to="E24" via="E4 -E5 E16" end="14400.00" vehsPerHour="250" />
    <flow id="inc_f_16_afternoon" type="passenger" begin="10800.00" from="-E11" to="E21" end="14400.00" vehsPerHour="160" />
    <flow id="inc_f_17_afternoon" type="passenger" begin="10800.00" from="-E12" to="E15" end="14400.00" vehsPerHour="171" />
    <flow id="inc_f_19_afternoon" type="passenger" begin="10800.00" from="-E13" to="E9" end="14400.00" vehsPerHour="144" />
    <flow id="inc_f_1_afternoon" type="passenger" begin="10800.00" from="-E15" to="E21" via="-E18 E19 E20" end="14400.00" vehsPerHour="236" />
    <flow id="inc_f_20_afternoon" type="passenger" begin="10800.00" from="-E13" to="E15" end="14400.00" vehsPerHour="185" />
    <flow id="inc_f_21_afternoon" type="passenger" begin="10800.00" from="-E24" to="E12" via="-E23" end="14400.00" vehsPerHour="165" />
    <flow id="inc_f_22_afternoon" type="passenger" begin="10800.00" from="-E24" to="E15" end="14400.00" vehsPerHour="179" />
    <flow id="inc_f_23_afternoon" type="passenger" begin="10800.00" from="-E21" to="E15" end="14400.00" vehsPerHour="193" />
    <flow id="inc_f_24_afternoon" type="passenger" begin="10800.00" from="-E21" to="E10" end="14400.00" vehsPerHour="157" />
    <flow id="inc_f_2_afternoon" type="passenger" begin="10800.00" from="-E15" to="E10" via="-E18 -E17" end="14400.00" vehsPerHour="221" />
    <flow id="inc_t_1_afternoon" type="truck" begin="10800.00" from="-E15" to="E10" via="-E18 -E17" end="14400.00" vehsPerHour="12" />
    <flow id="inc_b_1_evening_peak" type="bus" begin="14400.00" from="-E15" to="E24" via="E4 -E5 E16" end="18000.00" vehsPerHour="28" />
    <flow id="inc_b_2_evening_peak" type="bus" begin="14400.00" from="-E15" to="E21" via="-E18 E19 E20" end="18000.00" vehsPerHour="28" />
    <flow id="inc_f_0_evening_peak" type="passenger" begin="14400.00" from="-E15" to="E24" via="E4 -E5 E16" end="18000.00" vehsPerHour="472" />
    <flow id="inc_f_16_evening_peak" type="passenger" begin="14400.00" from="-E11" to="E21" end="18000.00" vehsPerHour="302" />
    <flow id="inc_f_17_evening_peak" type="passenger" begin="14400.00" from="-E12" to="E15" end="18000.00" vehsPerHour="324" />
    <flow id="inc_f_19_evening_peak" type="passenger" begin="14400.00" from="-E13" to="E9" end="18000.00" vehsPerHour="273" />
    <flow id="inc_f_1_evening_peak" type="passenger" begin="14400.00" from="-E15" to="E21" via="-E18 E19 E20" end="18000.00" vehsPerHour="447" />
    <flow id="inc_f_20_evening_peak" type="passenger" begin="14400.00" from="-E13" to="E15" end="18000.00" vehsPerHour="350" />
    <flow id="inc_f_21_evening_peak" type="passenger" begin="14400.00" from="-E24" to="E12" via="-E23" end="18000.00" vehsPerHour="312" />
    <flow id="inc_f_22_evening_peak" type="passenger" begin="14400.00" from="-E24" to="E15" end="18000.00" vehsPerHour="338" />
    <flow id="inc_f_23_evening_peak" type="passenger" begin="14400.00" from="-E21" to="E15" end="18000.00" vehsPerHour="365" />
    <flow id="inc_f_24_evening_peak" type="passenger" begin="14400.00" from="-E21" to="E10" end="18000.00" vehsPerHour="297" />
    <flow id="inc_f_2_evening_peak" type="passenger" begin="14400.00" from="-E15" to="E10" via="-E18 -E17" end="18000.00" vehsPerHour="418" />
    <flow id="inc_t_1_evening_peak" type="truck" begin="14400.00" from="-E15" to="E10" via="-E18 -E17" end="18000.00" vehsPerHour="24" />
    <flow id="inc_b_1_night" type="bus" begin="18000.00" from="-E15" to="E24" via="E4 -E5 E16" end="21600.00" vehsPerHour="6" />
    <flow id="inc_b_2_night" type="bus" begin="18000.00" from="-E15" to="E21" via="-E18 E19 E20" end="21600.00" vehsPerHour="6" />
    <flow id="inc_f_0_night" type="passenger" begin="18000.00" from="-E15" to="E24" via="E4 -E5 E16" end="21600.00" vehsPerHour="111" />
    <flow id="inc_f_16_night" type="passenger" begin="18000.00" from="-E11" to="E21" end="21600.00" vehsPerHour="71" />
    <flow id="inc_f_17_night" type="passenger" begin="18000.00" from="-E12" to="E15" end="21600.00" vehsPerHour="76" />
    <flow id="inc_f_19_night" type="passenger" begin="18000.00" from="-E13" to="E9" end="21600.00" vehsPerHour="64" />
    <flow id="inc_f_1_night" type="passenger" begin="18000.00" from="-E15" to="E21" via="-E18 E19 E20" end="21600.00" vehsPerHour="105" />
    <flow id="inc_f_20_night" type="passenger" begin="18000.00" from="-E13" to="E15" end="21600.00" vehsPerHour="82" />
    <flow id="inc_f_21_night" type="passenger" begin="18000.00" from="-E24" to="E12" via="-E23" end="21600.00" vehsPerHour="73" />
    <flow id="inc_f_22_night" type="passenger" begin="18000.00" from="-E24" to="E15" end="21600.00" vehsPerHour="79" />
    <flow id="inc_f_23_night" type="passenger" begin="18000.00" from="-E21" to="E15" end="21600.00" vehsPerHour="86" />
    <flow id="inc_f_24_night" type="passenger" begin="18000.00" from="-E21" to="E10" end="21600.00" vehsPerHour="70" />
    <flow id="inc_f_2_night" type="passenger" begin="18000.00" from="-E15" to="E10" via="-E18 -E17" end="21600.00" vehsPerHour="98" />
    <flow id="inc_t_1_night" type="truck" begin="18000.00" from="-E15" to="E10" via="-E18 -E17" end="21600.00" vehsPerHour="5" />
</routes>