<?xml version="1.0" encoding="UTF-8"?>
<routes xmlns:xsi="http://www.w3.org/2001/XMLSchema-instance" xsi:noNamespaceSchemaLocation="http://sumo.dlr.de/xsd/routes_file.xsd">
    <vType id="DEFAULT_VEHTYPE"/>
    <vType id="passenger" vClass="passenger"/>
    <vType id="bus" vClass="bus"/>
    <vType id="truck" vClass="truck"/>

    <flow id="b_1_early_morning" begin="0.00" from="-E15" to="E24" via="E4 -E5 E16" end="3600.00" vehsPerHour="10" type="bus"/>
    <flow id="b_1_morning_peak" begin="3600.00" from="-E15" to="E24" via="E4 -E5 E16" end="7200.00" vehsPerHour="16" type="bus"/>
    <flow id="b_1_midday" begin="7200.00" from="-E15" to="E24" via="E4 -E5 E16" end="10800.00" vehsPerHour="21" type="bus"/>
    <flow id="b_1_afternoon" begin="10800.00" from="-E15" to="E24" via="E4 -E5 E16" end="14400.00" vehsPerHour="17" type="bus"/>
    <flow id="b_1_evening_peak" begin="14400.00" from="-E15" to="E24" via="E4 -E5 E16" end="18000.00" vehsPerHour="19" type="bus"/>
    <flow id="b_1_night" begin="18000.00" from="-E15" to="E24" via="E4 -E5 E16" end="21600.00" vehsPerHour="8" type="bus"/>

    <flow id="b_2_early_morning" begin="0.00" from="-E15" to="E21" via="-E18 E19 E20" end="3600.00" vehsPerHour="10" type="bus"/>
    <flow id="b_2_morning_peak" begin="3600.00" from="-E15" to="E21" via="-E18 E19 E20" end="7200.00" vehsPerHour="15" type="bus"/>
    <flow id="b_2_midday" begin="7200.00" from="-E15" to="E21" via="-E18 E19 E20" end="10800.00" vehsPerHour="20" type="bus"/>
    <flow id="b_2_afternoon" begin="10800.00" from="-E15" to="E21" via="-E18 E19 E20" end="14400.00" vehsPerHour="17" type="bus"/>
    <flow id="b_2_evening_peak" begin="14400.00" from="-E15" to="E21" via="-E18 E19 E20" end="18000.00" vehsPerHour="18" type="bus"/>
    <flow id="b_2_night" begin="18000.00" from="-E15" to="E21" via="-E18 E19 E20" end="21600.00" vehsPerHour="8" type="bus"/>

    <flow id="f_0_early_morning" begin="0.00" from="-E15" to="E24" via="E4 -E5 E16" end="3600.00" vehsPerHour="166" type="passenger"/>
    <flow id="f_0_morning_peak" begin="3600.00" from="-E15" to="E24" via="E4 -E5 E16" end="7200.00" vehsPerHour="250" type="passenger"/>
    <flow id="f_0_midday" begin="7200.00" from="-E15" to="E24" via="E4 -E5 E16" end="10800.00" vehsPerHour="333" type="passenger"/>
    <flow id="f_0_afternoon" begin="10800.00" from="-E15" to="E24" via="E4 -E5 E16" end="14400.00" vehsPerHour="278" type="passenger"/>
    <flow id="f_0_evening_peak" begin="14400.00" from="-E15" to="E24" via="E4 -E5 E16" end="18000.00" vehsPerHour="305" type="passenger"/>
    <flow id="f_0_night" begin="18000.00" from="-E15" to="E24" via="E4 -E5 E16" end="21600.00" vehsPerHour="139" type="passenger"/>

    <flow id="f_1_early_morning" begin="0.00" from="-E15" to="E21" via="-E18 E19 E20" end="3600.00" vehsPerHour="157" type="passenger"/>
    <flow id="f_1_morning_peak" begin="3600.00" from="-E15" to="E21" via="-E18 E19 E20" end="7200.00" vehsPerHour="236" type="passenger"/>
    <flow id="f_1_midday" begin="7200.00" from="-E15" to="E21" via="-E18 E19 E20" end="10800.00" vehsPerHour="315" type="passenger"/>
    <flow id="f_1_afternoon" begin="10800.00" from="-E15" to="E21" via="-E18 E19 E20" end="14400.00" vehsPerHour="263" type="passenger"/>
    <flow id="f_1_evening_peak" begin="14400.00" from="-E15" to="E21" via="-E18 E19 E20" end="18000.00" vehsPerHour="289" type="passenger"/>
    <flow id="f_1_night" begin="18000.00" from="-E15" to="E21" via="-E18 E19 E20" end="21600.00" vehsPerHour="131" type="passenger"/>

    <flow id="f_16_early_morning" begin="0.00" from="-E11" to="E21" end="3600.00" vehsPerHour="106" type="passenger"/>
    <flow id="f_16_morning_peak" begin="3600.00" from="-E11" to="E21" end="7200.00" vehsPerHour="160" type="passenger"/>
    <flow id="f_16_midday" begin="7200.00" from="-E11" to="E21" end="10800.00" vehsPerHour="213" type="passenger"/>
    <flow id="f_16_afternoon" begin="10800.00" from="-E11" to="E21" end="14400.00" vehsPerHour="178" type="passenger"/>
    <flow id="f_16_evening_peak" begin="14400.00" from="-E11" to="E21" end="18000.00" vehsPerHour="195" type="passenger"/>
    <flow id="f_16_night" begin="18000.00" from="-E11" to="E21" end="21600.00" vehsPerHour="89" type="passenger"/>

    <flow id="f_17_early_morning" begin="0.00" from="-E12" to="E15" end="3600.00" vehsPerHour="114" type="passenger"/>
    <flow id="f_17_morning_peak" begin="3600.00" from="-E12" to="E15" end="7200.00" vehsPerHour="171" type="passenger"/>
    <flow id="f_17_midday" begin="7200.00" from="-E12" to="E15" end="10800.00" vehsPerHour="229" type="passenger"/>
    <flow id="f_17_afternoon" begin="10800.00" from="-E12" to="E15" end="14400.00" vehsPerHour="191" type="passenger"/>
    <flow id="f_17_evening_peak" begin="14400.00" from="-E12" to="E15" end="18000.00" vehsPerHour="210" type="passenger"/>
    <flow id="f_17_night" begin="18000.00" from="-E12" to="E15" end="21600.00" vehsPerHour="95" type="passenger"/>

    <flow id="f_19_early_morning" begin="0.00" from="-E13" to="E9" end="3600.00" vehsPerHour="96" type="passenger"/>
    <flow id="f_19_morning_peak" begin="3600.00" from="-E13" to="E9" end="7200.00" vehsPerHour="144" type="passenger"/>
    <flow id="f_19_midday" begin="7200.00" from="-E13" to="E9" end="10800.00" vehsPerHour="193" type="passenger"/>
    <flow id="f_19_afternoon" begin="10800.00" from="-E13" to="E9" end="14400.00" vehsPerHour="161" type="passenger"/>
    <flow id="f_19_evening_peak" begin="14400.00" from="-E13" to="E9" end="18000.00" vehsPerHour="177" type="passenger"/>
    <flow id="f_19_night" begin="18000.00" from="-E13" to="E9" end="21600.00" vehsPerHour="80" type="passenger"/>

    <flow id="f_2_early_morning" begin="0.00" from="-E15" to="E10" via="-E18 -E17" end="3600.00" vehsPerHour="147" type="passenger"/>
    <flow id="f_2_morning_peak" begin="3600.00" from="-E15" to="E10" via="-E18 -E17" end="7200.00" vehsPerHour="221" type="passenger"/>
    <flow id="f_2_midday" begin="7200.00" from="-E15" to="E10" via="-E18 -E17" end="10800.00" vehsPerHour="295" type="passenger"/>
    <flow id="f_2_afternoon" begin="10800.00" from="-E15" to="E10" via="-E18 -E17" end="14400.00" vehsPerHour="246" type="passenger"/>
    <flow id="f_2_evening_peak" begin="14400.00" from="-E15" to="E10" via="-E18 -E17" end="18000.00" vehsPerHour="270" type="passenger"/>
    <flow id="f_2_night" begin="18000.00" from="-E15" to="E10" via="-E18 -E17" end="21600.00" vehsPerHour="123" type="passenger"/>

    <flow id="f_20_early_morning" begin="0.00" from="-E13" to="E15" end="3600.00" vehsPerHour="123" type="passenger"/>
    <flow id="f_20_morning_peak" begin="3600.00" from="-E13" to="E15" end="7200.00" vehsPerHour="185" type="passenger"/>
    <flow id="f_20_midday" begin="7200.00" from="-E13" to="E15" end="10800.00" vehsPerHour="247" type="passenger"/>
    <flow id="f_20_afternoon" begin="10800.00" from="-E13" to="E15" end="14400.00" vehsPerHour="206" type="passenger"/>
    <flow id="f_20_evening_peak" begin="14400.00" from="-E13" to="E15" end="18000.00" vehsPerHour="226" type="passenger"/>
    <flow id="f_20_night" begin="18000.00" from="-E13" to="E15" end="21600.00" vehsPerHour="103" type="passenger"/>

    <flow id="f_21_early_morning" begin="0.00" from="-E24" to="E12" via="-E23" end="3600.00" vehsPerHour="110" type="passenger"/>
    <flow id="f_21_morning_peak" begin="3600.00" from="-E24" to="E12" via="-E23" end="7200.00" vehsPerHour="165" type="passenger"/>
    <flow id="f_21_midday" begin="7200.00" from="-E24" to="E12" via="-E23" end="10800.00" vehsPerHour="220" type="passenger"/>
    <flow id="f_21_afternoon" begin="10800.00" from="-E24" to="E12" via="-E23" end="14400.00" vehsPerHour="184" type="passenger"/>
    <flow id="f_21_evening_peak" begin="14400.00" from="-E24" to="E12" via="-E23" end="18000.00" vehsPerHour="202" type="passenger"/>
    <flow id="f_21_night" begin="18000.00" from="-E24" to="E12" via="-E23" end="21600.00" vehsPerHour="92" type="passenger"/>

    <flow id="f_22_early_morning" begin="0.00" from="-E24" to="E15" end="3600.00" vehsPerHour="119" type="passenger"/>
    <flow id="f_22_morning_peak" begin="3600.00" from="-E24" to="E15" end="7200.00" vehsPerHour="179" type="passenger"/>
    <flow id="f_22_midday" begin="7200.00" from="-E24" to="E15" end="10800.00" vehsPerHour="238" type="passenger"/>
    <flow id="f_22_afternoon" begin="10800.00" from="-E24" to="E15" end="14400.00" vehsPerHour="199" type="passenger"/>
    <flow id="f_22_evening_peak" begin="14400.00" from="-E24" to="E15" end="18000.00" vehsPerHour="218" type="passenger"/>
    <flow id="f_22_night" begin="18000.00" from="-E24" to="E15" end="21600.00" vehsPerHour="99" type="passenger"/>

    <flow id="f_23_early_morning" begin="0.00" from="-E21" to="E15" end="3600.00" vehsPerHour="129" type="passenger"/>
    <flow id="f_23_morning_peak" begin="3600.00" from="-E21" to="E15" end="7200.00" vehsPerHour="193" type="passenger"/>
    <flow id="f_23_midday" begin="7200.00" from="-E21" to="E15" end="10800.00" vehsPerHour="258" type="passenger"/>
    <flow id="f_23_afternoon" begin="10800.00" from="-E21" to="E15" end="14400.00" vehsPerHour="215" type="passenger"/>
    <flow id="f_23_evening_peak" begin="14400.00" from="-E21" to="E15" end="18000.00" vehsPerHour="236" type="passenger"/>
    <flow id="f_23_night" begin="18000.00" from="-E21" to="E15" end="21600.00" vehsPerHour="107" type="passenger"/>

    <flow id="f_24_early_morning" begin="0.00" from="-E21" to="E10" end="3600.00" vehsPerHour="105" type="passenger"/>
    <flow id="f_24_morning_peak" begin="3600.00" from="-E21" to="E10" end="7200.00" vehsPerHour="157" type="passenger"/>
    <flow id="f_24_midday" begin="7200.00" from="-E21" to="E10" end="10800.00" vehsPerHour="210" type="passenger"/>
    <flow id="f_24_afternoon" begin="10800.00" from="-E21" to="E10" end="14400.00" vehsPerHour="175" type="passenger"/>
    <flow id="f_24_evening_peak" begin="14400.00" from="-E21" to="E10" end="18000.00" vehsPerHour="192" type="passenger"/>
    <flow id="f_24_night" begin="18000.00" from="-E21" to="E10" end="21600.00" vehsPerHour="87" type="passenger"/>

    <flow id="f_25_early_morning" begin="0.00" from="E10" to="E15" via="E17 E18" end="3600.00" vehsPerHour="86" type="passenger"/>
    <flow id="f_25_morning_peak" begin="3600.00" from="E10" to="E15" via="E17 E18" end="7200.00" vehsPerHour="129" type="passenger"/>
    <flow id="f_25_midday" begin="7200.00" from="E10" to="E15" via="E17 E18" end="10800.00" vehsPerHour="172" type="passenger"/>
    <flow id="f_25_afternoon" begin="10800.00" from="E10" to="E15" via="E17 E18" end="14400.00" vehsPerHour="144" type="passenger"/>
    <flow id="f_25_evening_peak" begin="14400.00" from="E10" to="E15" via="E17 E18" end="18000.00" vehsPerHour="158" type="passenger"/>
    <flow id="f_25_night" begin="18000.00" from="E10" to="E15" via="E17 E18" end="21600.00" vehsPerHour="72" type="passenger"/>

    <flow id="f_26_early_morning" begin="0.00" from="E9" to="E12" via="E11" end="3600.00" vehsPerHour="122" type="passenger"/>
    <flow id="f_26_morning_peak" begin="3600.00" from="E9" to="E12" via="E11" end="7200.00" vehsPerHour="183" type="passenger"/>
    <flow id="f_26_midday" begin="7200.00" from="E9" to="E12" via="E11" end="10800.00" vehsPerHour="244" type="passenger"/>
    <flow id="f_26_afternoon" begin="10800.00" from="E9" to="E12" via="E11" end="14400.00" vehsPerHour="204" type="passenger"/>
    <flow id="f_26_evening_peak" begin="14400.00" from="E9" to="E12" via="E11" end="18000.00" vehsPerHour="224" type="passenger"/>
    <flow id="f_26_night" begin="18000.00" from="E9" to="E12" via="E11" end="21600.00" vehsPerHour="102" type="passenger"/>

    <flow id="f_27_early_morning" begin="0.00" from="E9" to="E24" end="3600.00" vehsPerHour="83" type="passenger"/>
    <flow id="f_27_morning_peak" begin="3600.00" from="E9" to="E24" end="7200.00" vehsPerHour="125" type="passenger"/>
    <flow id="f_27_midday" begin="7200.00" from="E9" to="E24" end="10800.00" vehsPerHour="166" type="passenger"/>
    <flow id="f_27_afternoon" begin="10800.00" from="E9" to="E24" end="14400.00" vehsPerHour="139" type="passenger"/>
    <flow id="f_27_evening_peak" begin="14400.00" from="E9" to="E24" end="18000.00" vehsPerHour="152" type="passenger"/>
    <flow id="f_27_night" begin="18000.00" from="E9" to="E24" end="21600.00" vehsPerHour="69" type="passenger"/>

    <flow id="f_3_early_morning" begin="0.00" from="E6" to="E24" via="E16" end="3600.00" vehsPerHour="137" type="passenger"/>
    <flow id="f_3_morning_peak" begin="3600.00" from="E6" to="E24" via="E16" end="7200.00" vehsPerHour="206" type="passenger"/>
    <flow id="f_3_midday" begin="7200.00" from="E6" to="E24" via="E16" end="10800.00" vehsPerHour="274" type="passenger"/>
    <flow id="f_3_afternoon" begin="10800.00" from="E6" to="E24" via="E16" end="14400.00" vehsPerHour="229" type="passenger"/>
    <flow id="f_3_evening_peak" begin="14400.00" from="E6" to="E24" via="E16" end="18000.00" vehsPerHour="251" type="passenger"/>
    <flow id="f_3_night" begin="18000.00" from="E6" to="E24" via="E16" end="21600.00" vehsPerHour="114" type="passenger"/>

    <flow id="f_4_early_morning" begin="0.00" from="E6" to="E21" end="3600.00" vehsPerHour="151" type="passenger"/>
    <flow id="f_4_morning_peak" begin="3600.00" from="E6" to="E21" end="7200.00" vehsPerHour="227" type="passenger"/>
    <flow id="f_4_midday" begin="7200.00" from="E6" to="E21" end="10800.00" vehsPerHour="303" type="passenger"/>
    <flow id="f_4_afternoon" begin="10800.00" from="E6" to="E21" end="14400.00" vehsPerHour="253" type="passenger"/>
    <flow id="f_4_evening_peak" begin="14400.00" from="E6" to="E21" end="18000.00" vehsPerHour="278" type="passenger"/>
    <flow id="f_4_night" begin="18000.00" from="E6" to="E21" end="21600.00" vehsPerHour="126" type="passenger"/>

    <flow id="t_1_early_morning" begin="0.00" from="-E15" to="E10" via="-E18 -E17" end="3600.00" vehsPerHour="8" type="truck"/>
    <flow id="t_1_morning_peak" begin="3600.00" from="-E15" to="E10" via="-E18 -E17" end="7200.00" vehsPerHour="12" type="truck"/>
    <flow id="t_1_midday" begin="7200.00" from="-E15" to="E10" via="-E18 -E17" end="10800.00" vehsPerHour="17" type="truck"/>
    <flow id="t_1_afternoon" begin="10800.00" from="-E15" to="E10" via="-E18 -E17" end="14400.00" vehsPerHour="14" type="truck"/>
    <flow id="t_1_evening_peak" begin="14400.00" from="-E15" to="E10" via="-E18 -E17" end="18000.00" vehsPerHour="15" type="truck"/>
    <flow id="t_1_night" begin="18000.00" from="-E15" to="E10" via="-E18 -E17" end="21600.00" vehsPerHour="7" type="truck"/>

    <flow id="t_2_early_morning" begin="0.00" from="E6" to="E24" via="E16" end="3600.00" vehsPerHour="7" type="truck"/>
    <flow id="t_2_morning_peak" begin="3600.00" from="E6" to="E24" via="E16" end="7200.00" vehsPerHour="11" type="truck"/>
    <flow id="t_2_midday" begin="7200.00" from="E6" to="E24" via="E16" end="10800.00" vehsPerHour="14" type="truck"/>
    <flow id="t_2_afternoon" begin="10800.00" from="E6" to="E24" via="E16" end="14400.00" vehsPerHour="12" type="truck"/>
    <flow id="t_2_evening_peak" begin="14400.00" from="E6" to="E24" via="E16" end="18000.00" vehsPerHour="13" type="truck"/>
    <flow id="t_2_night" begin="18000.00" from="E6" to="E24" via="E16" end="21600.00" vehsPerHour="6" type="truck"/>

</routes>