<?xml version="1.0" encoding="UTF-8"?>

<!-- 12-Hour Weekday Traffic Scenario (6am-6pm) -->
<!-- Generated from validated routes in original.rou.xml -->
<!-- 39 routes x 6 time periods = 234 flows -->

<routes xmlns:xsi="http://www.w3.org/2001/XMLSchema-instance" xsi:noNamespaceSchemaLocation="http://sumo.dlr.de/xsd/routes_file.xsd">

    <!-- Vehicle Type -->
    <vType id="car" accel="2.6" decel="4.5" sigma="0.5" length="5" maxSpeed="50"/>

    <!-- Traffic Flows (39 routes x 6 periods) -->

    <!-- Routes from -E9 -->
    <flow id="f_0_early_morning" begin="0" end="7200" from="-E9" to="E13" vehsPerHour="60" type="car"/>
    <flow id="f_0_morning_peak" begin="7200" end="10800" from="-E9" to="E13" vehsPerHour="120" type="car"/>
    <flow id="f_0_late_morning" begin="10800" end="21600" from="-E9" to="E13" vehsPerHour="65" type="car"/>
    <flow id="f_0_lunch" begin="21600" end="28800" from="-E9" to="E13" vehsPerHour="55" type="car"/>
    <flow id="f_0_early_afternoon" begin="28800" end="36000" from="-E9" to="E13" vehsPerHour="50" type="car"/>
    <flow id="f_0_late_afternoon" begin="36000" end="43200" from="-E9" to="E13" vehsPerHour="200" type="car"/>
    <flow id="f_1_early_morning" begin="0" end="7200" from="-E9" to="E6" vehsPerHour="60" type="car"/>
    <flow id="f_1_morning_peak" begin="7200" end="10800" from="-E9" to="E6" vehsPerHour="120" type="car"/>
    <flow id="f_1_late_morning" begin="10800" end="21600" from="-E9" to="E6" vehsPerHour="65" type="car"/>
    <flow id="f_1_lunch" begin="21600" end="28800" from="-E9" to="E6" vehsPerHour="55" type="car"/>
    <flow id="f_1_early_afternoon" begin="28800" end="36000" from="-E9" to="E6" vehsPerHour="50" type="car"/>
    <flow id="f_1_late_afternoon" begin="36000" end="43200" from="-E9" to="E6" vehsPerHour="200" type="car"/>
    <flow id="f_2_early_morning" begin="0" end="7200" from="-E9" to="E24" vehsPerHour="72" type="car"/>
    <flow id="f_2_morning_peak" begin="7200" end="10800" from="-E9" to="E24" vehsPerHour="144" type="car"/>
    <flow id="f_2_late_morning" begin="10800" end="21600" from="-E9" to="E24" vehsPerHour="78" type="car"/>
    <flow id="f_2_lunch" begin="21600" end="28800" from="-E9" to="E24" vehsPerHour="66" type="car"/>
    <flow id="f_2_early_afternoon" begin="28800" end="36000" from="-E9" to="E24" vehsPerHour="60" type="car"/>
    <flow id="f_2_late_afternoon" begin="36000" end="43200" from="-E9" to="E24" vehsPerHour="240" type="car"/>
    <flow id="f_3_early_morning" begin="0" end="7200" from="-E9" to="E10" vehsPerHour="48" type="car"/>
    <flow id="f_3_morning_peak" begin="7200" end="10800" from="-E9" to="E10" vehsPerHour="96" type="car"/>
    <flow id="f_3_late_morning" begin="10800" end="21600" from="-E9" to="E10" vehsPerHour="52" type="car"/>
    <flow id="f_3_lunch" begin="21600" end="28800" from="-E9" to="E10" vehsPerHour="44" type="car"/>
    <flow id="f_3_early_afternoon" begin="28800" end="36000" from="-E9" to="E10" vehsPerHour="40" type="car"/>
    <flow id="f_3_late_afternoon" begin="36000" end="43200" from="-E9" to="E10" vehsPerHour="160" type="car"/>
    <flow id="f_4_early_morning" begin="0" end="7200" from="-E9" to="E21" vehsPerHour="54" type="car"/>
    <flow id="f_4_morning_peak" begin="7200" end="10800" from="-E9" to="E21" vehsPerHour="108" type="car"/>
    <flow id="f_4_late_morning" begin="10800" end="21600" from="-E9" to="E21" vehsPerHour="58" type="car"/>
    <flow id="f_4_lunch" begin="21600" end="28800" from="-E9" to="E21" vehsPerHour="50" type="car"/>
    <flow id="f_4_early_afternoon" begin="28800" end="36000" from="-E9" to="E21" vehsPerHour="45" type="car"/>
    <flow id="f_4_late_afternoon" begin="36000" end="43200" from="-E9" to="E21" vehsPerHour="180" type="car"/>

    <!-- Routes from -E10 -->
    <flow id="f_5_early_morning" begin="0" end="7200" from="-E10" to="E6" vehsPerHour="60" type="car"/>
    <flow id="f_5_morning_peak" begin="7200" end="10800" from="-E10" to="E6" vehsPerHour="120" type="car"/>
    <flow id="f_5_late_morning" begin="10800" end="21600" from="-E10" to="E6" vehsPerHour="65" type="car"/>
    <flow id="f_5_lunch" begin="21600" end="28800" from="-E10" to="E6" vehsPerHour="55" type="car"/>
    <flow id="f_5_early_afternoon" begin="28800" end="36000" from="-E10" to="E6" vehsPerHour="50" type="car"/>
    <flow id="f_5_late_afternoon" begin="36000" end="43200" from="-E10" to="E6" vehsPerHour="200" type="car"/>
    <flow id="f_6_early_morning" begin="0" end="7200" from="-E10" to="E21" vehsPerHour="90" type="car"/>
    <flow id="f_6_morning_peak" begin="7200" end="10800" from="-E10" to="E21" vehsPerHour="180" type="car"/>
    <flow id="f_6_late_morning" begin="10800" end="21600" from="-E10" to="E21" vehsPerHour="98" type="car"/>
    <flow id="f_6_lunch" begin="21600" end="28800" from="-E10" to="E21" vehsPerHour="82" type="car"/>
    <flow id="f_6_early_afternoon" begin="28800" end="36000" from="-E10" to="E21" vehsPerHour="75" type="car"/>
    <flow id="f_6_late_afternoon" begin="36000" end="43200" from="-E10" to="E21" vehsPerHour="300" type="car"/>
    <flow id="f_7_early_morning" begin="0" end="7200" from="-E10" to="E15" vehsPerHour="108" type="car"/>
    <flow id="f_7_morning_peak" begin="7200" end="10800" from="-E10" to="E15" vehsPerHour="216" type="car"/>
    <flow id="f_7_late_morning" begin="10800" end="21600" from="-E10" to="E15" vehsPerHour="117" type="car"/>
    <flow id="f_7_lunch" begin="21600" end="28800" from="-E10" to="E15" vehsPerHour="99" type="car"/>
    <flow id="f_7_early_afternoon" begin="28800" end="36000" from="-E10" to="E15" vehsPerHour="90" type="car"/>
    <flow id="f_7_late_afternoon" begin="36000" end="43200" from="-E10" to="E15" vehsPerHour="360" type="car"/>
    <flow id="f_8_early_morning" begin="0" end="7200" from="-E10" to="E24" vehsPerHour="72" type="car"/>
    <flow id="f_8_morning_peak" begin="7200" end="10800" from="-E10" to="E24" vehsPerHour="144" type="car"/>
    <flow id="f_8_late_morning" begin="10800" end="21600" from="-E10" to="E24" vehsPerHour="78" type="car"/>
    <flow id="f_8_lunch" begin="21600" end="28800" from="-E10" to="E24" vehsPerHour="66" type="car"/>
    <flow id="f_8_early_afternoon" begin="28800" end="36000" from="-E10" to="E24" vehsPerHour="60" type="car"/>
    <flow id="f_8_late_afternoon" begin="36000" end="43200" from="-E10" to="E24" vehsPerHour="240" type="car"/>
    <flow id="f_9_early_morning" begin="0" end="7200" from="-E10" to="E13" vehsPerHour="48" type="car"/>
    <flow id="f_9_morning_peak" begin="7200" end="10800" from="-E10" to="E13" vehsPerHour="96" type="car"/>
    <flow id="f_9_late_morning" begin="10800" end="21600" from="-E10" to="E13" vehsPerHour="52" type="car"/>
    <flow id="f_9_lunch" begin="21600" end="28800" from="-E10" to="E13" vehsPerHour="44" type="car"/>
    <flow id="f_9_early_afternoon" begin="28800" end="36000" from="-E10" to="E13" vehsPerHour="40" type="car"/>
    <flow id="f_9_late_afternoon" begin="36000" end="43200" from="-E10" to="E13" vehsPerHour="160" type="car"/>
    <flow id="f_10_early_morning" begin="0" end="7200" from="-E10" to="E15" vehsPerHour="108" type="car"/>
    <flow id="f_10_morning_peak" begin="7200" end="10800" from="-E10" to="E15" vehsPerHour="216" type="car"/>
    <flow id="f_10_late_morning" begin="10800" end="21600" from="-E10" to="E15" vehsPerHour="117" type="car"/>
    <flow id="f_10_lunch" begin="21600" end="28800" from="-E10" to="E15" vehsPerHour="99" type="car"/>
    <flow id="f_10_early_afternoon" begin="28800" end="36000" from="-E10" to="E15" vehsPerHour="90" type="car"/>
    <flow id="f_10_late_afternoon" begin="36000" end="43200" from="-E10" to="E15" vehsPerHour="360" type="car"/>

    <!-- Routes from -E11 -->
    <flow id="f_11_early_morning" begin="0" end="7200" from="-E11" to="E6" vehsPerHour="54" type="car"/>
    <flow id="f_11_morning_peak" begin="7200" end="10800" from="-E11" to="E6" vehsPerHour="108" type="car"/>
    <flow id="f_11_late_morning" begin="10800" end="21600" from="-E11" to="E6" vehsPerHour="58" type="car"/>
    <flow id="f_11_lunch" begin="21600" end="28800" from="-E11" to="E6" vehsPerHour="50" type="car"/>
    <flow id="f_11_early_afternoon" begin="28800" end="36000" from="-E11" to="E6" vehsPerHour="45" type="car"/>
    <flow id="f_11_late_afternoon" begin="36000" end="43200" from="-E11" to="E6" vehsPerHour="180" type="car"/>
    <flow id="f_12_early_morning" begin="0" end="7200" from="-E11" to="E9" vehsPerHour="48" type="car"/>
    <flow id="f_12_morning_peak" begin="7200" end="10800" from="-E11" to="E9" vehsPerHour="96" type="car"/>
    <flow id="f_12_late_morning" begin="10800" end="21600" from="-E11" to="E9" vehsPerHour="52" type="car"/>
    <flow id="f_12_lunch" begin="21600" end="28800" from="-E11" to="E9" vehsPerHour="44" type="car"/>
    <flow id="f_12_early_afternoon" begin="28800" end="36000" from="-E11" to="E9" vehsPerHour="40" type="car"/>
    <flow id="f_12_late_afternoon" begin="36000" end="43200" from="-E11" to="E9" vehsPerHour="160" type="car"/>
    <flow id="f_13_early_morning" begin="0" end="7200" from="-E11" to="E13" vehsPerHour="42" type="car"/>
    <flow id="f_13_morning_peak" begin="7200" end="10800" from="-E11" to="E13" vehsPerHour="84" type="car"/>
    <flow id="f_13_late_morning" begin="10800" end="21600" from="-E11" to="E13" vehsPerHour="46" type="car"/>
    <flow id="f_13_lunch" begin="21600" end="28800" from="-E11" to="E13" vehsPerHour="38" type="car"/>
    <flow id="f_13_early_afternoon" begin="28800" end="36000" from="-E11" to="E13" vehsPerHour="35" type="car"/>
    <flow id="f_13_late_afternoon" begin="36000" end="43200" from="-E11" to="E13" vehsPerHour="140" type="car"/>
    <flow id="f_14_early_morning" begin="0" end="7200" from="-E11" to="E15" vehsPerHour="60" type="car"/>
    <flow id="f_14_morning_peak" begin="7200" end="10800" from="-E11" to="E15" vehsPerHour="120" type="car"/>
    <flow id="f_14_late_morning" begin="10800" end="21600" from="-E11" to="E15" vehsPerHour="65" type="car"/>
    <flow id="f_14_lunch" begin="21600" end="28800" from="-E11" to="E15" vehsPerHour="55" type="car"/>
    <flow id="f_14_early_afternoon" begin="28800" end="36000" from="-E11" to="E15" vehsPerHour="50" type="car"/>
    <flow id="f_14_late_afternoon" begin="36000" end="43200" from="-E11" to="E15" vehsPerHour="200" type="car"/>
    <flow id="f_15_early_morning" begin="0" end="7200" from="-E11" to="E24" vehsPerHour="90" type="car"/>
    <flow id="f_15_morning_peak" begin="7200" end="10800" from="-E11" to="E24" vehsPerHour="180" type="car"/>
    <flow id="f_15_late_morning" begin="10800" end="21600" from="-E11" to="E24" vehsPerHour="98" type="car"/>
    <flow id="f_15_lunch" begin="21600" end="28800" from="-E11" to="E24" vehsPerHour="82" type="car"/>
    <flow id="f_15_early_afternoon" begin="28800" end="36000" from="-E11" to="E24" vehsPerHour="75" type="car"/>
    <flow id="f_15_late_afternoon" begin="36000" end="43200" from="-E11" to="E24" vehsPerHour="300" type="car"/>

    <!-- Routes from -E12 -->
    <flow id="f_16_early_morning" begin="0" end="7200" from="-E12" to="E9" vehsPerHour="48" type="car"/>
    <flow id="f_16_morning_peak" begin="7200" end="10800" from="-E12" to="E9" vehsPerHour="96" type="car"/>
    <flow id="f_16_late_morning" begin="10800" end="21600" from="-E12" to="E9" vehsPerHour="52" type="car"/>
    <flow id="f_16_lunch" begin="21600" end="28800" from="-E12" to="E9" vehsPerHour="44" type="car"/>
    <flow id="f_16_early_afternoon" begin="28800" end="36000" from="-E12" to="E9" vehsPerHour="40" type="car"/>
    <flow id="f_16_late_afternoon" begin="36000" end="43200" from="-E12" to="E9" vehsPerHour="160" type="car"/>
    <flow id="f_17_early_morning" begin="0" end="7200" from="-E12" to="E6" vehsPerHour="54" type="car"/>
    <flow id="f_17_morning_peak" begin="7200" end="10800" from="-E12" to="E6" vehsPerHour="108" type="car"/>
    <flow id="f_17_late_morning" begin="10800" end="21600" from="-E12" to="E6" vehsPerHour="58" type="car"/>
    <flow id="f_17_lunch" begin="21600" end="28800" from="-E12" to="E6" vehsPerHour="50" type="car"/>
    <flow id="f_17_early_afternoon" begin="28800" end="36000" from="-E12" to="E6" vehsPerHour="45" type="car"/>
    <flow id="f_17_late_afternoon" begin="36000" end="43200" from="-E12" to="E6" vehsPerHour="180" type="car"/>
    <flow id="f_18_early_morning" begin="0" end="7200" from="-E12" to="E15" vehsPerHour="60" type="car"/>
    <flow id="f_18_morning_peak" begin="7200" end="10800" from="-E12" to="E15" vehsPerHour="120" type="car"/>
    <flow id="f_18_late_morning" begin="10800" end="21600" from="-E12" to="E15" vehsPerHour="65" type="car"/>
    <flow id="f_18_lunch" begin="21600" end="28800" from="-E12" to="E15" vehsPerHour="55" type="car"/>
    <flow id="f_18_early_afternoon" begin="28800" end="36000" from="-E12" to="E15" vehsPerHour="50" type="car"/>
    <flow id="f_18_late_afternoon" begin="36000" end="43200" from="-E12" to="E15" vehsPerHour="200" type="car"/>
    <flow id="f_19_early_morning" begin="0" end="7200" from="-E12" to="E24" vehsPerHour="66" type="car"/>
    <flow id="f_19_morning_peak" begin="7200" end="10800" from="-E12" to="E24" vehsPerHour="132" type="car"/>
    <flow id="f_19_late_morning" begin="10800" end="21600" from="-E12" to="E24" vehsPerHour="72" type="car"/>
    <flow id="f_19_lunch" begin="21600" end="28800" from="-E12" to="E24" vehsPerHour="61" type="car"/>
    <flow id="f_19_early_afternoon" begin="28800" end="36000" from="-E12" to="E24" vehsPerHour="55" type="car"/>
    <flow id="f_19_late_afternoon" begin="36000" end="43200" from="-E12" to="E24" vehsPerHour="220" type="car"/>

    <!-- Routes from -E13 -->
    <flow id="f_20_early_morning" begin="0" end="7200" from="-E13" to="E24" vehsPerHour="72" type="car"/>
    <flow id="f_20_morning_peak" begin="7200" end="10800" from="-E13" to="E24" vehsPerHour="144" type="car"/>
    <flow id="f_20_late_morning" begin="10800" end="21600" from="-E13" to="E24" vehsPerHour="78" type="car"/>
    <flow id="f_20_lunch" begin="21600" end="28800" from="-E13" to="E24" vehsPerHour="66" type="car"/>
    <flow id="f_20_early_afternoon" begin="28800" end="36000" from="-E13" to="E24" vehsPerHour="60" type="car"/>
    <flow id="f_20_late_afternoon" begin="36000" end="43200" from="-E13" to="E24" vehsPerHour="240" type="car"/>
    <flow id="f_21_early_morning" begin="0" end="7200" from="-E13" to="E6" vehsPerHour="60" type="car"/>
    <flow id="f_21_morning_peak" begin="7200" end="10800" from="-E13" to="E6" vehsPerHour="120" type="car"/>
    <flow id="f_21_late_morning" begin="10800" end="21600" from="-E13" to="E6" vehsPerHour="65" type="car"/>
    <flow id="f_21_lunch" begin="21600" end="28800" from="-E13" to="E6" vehsPerHour="55" type="car"/>
    <flow id="f_21_early_afternoon" begin="28800" end="36000" from="-E13" to="E6" vehsPerHour="50" type="car"/>
    <flow id="f_21_late_afternoon" begin="36000" end="43200" from="-E13" to="E6" vehsPerHour="200" type="car"/>
    <flow id="f_22_early_morning" begin="0" end="7200" from="-E13" to="E15" vehsPerHour="66" type="car"/>
    <flow id="f_22_morning_peak" begin="7200" end="10800" from="-E13" to="E15" vehsPerHour="132" type="car"/>
    <flow id="f_22_late_morning" begin="10800" end="21600" from="-E13" to="E15" vehsPerHour="72" type="car"/>
    <flow id="f_22_lunch" begin="21600" end="28800" from="-E13" to="E15" vehsPerHour="61" type="car"/>
    <flow id="f_22_early_afternoon" begin="28800" end="36000" from="-E13" to="E15" vehsPerHour="55" type="car"/>
    <flow id="f_22_late_afternoon" begin="36000" end="43200" from="-E13" to="E15" vehsPerHour="220" type="car"/>
    <flow id="f_23_early_morning" begin="0" end="7200" from="-E13" to="E10" vehsPerHour="54" type="car"/>
    <flow id="f_23_morning_peak" begin="7200" end="10800" from="-E13" to="E10" vehsPerHour="108" type="car"/>
    <flow id="f_23_late_morning" begin="10800" end="21600" from="-E13" to="E10" vehsPerHour="58" type="car"/>
    <flow id="f_23_lunch" begin="21600" end="28800" from="-E13" to="E10" vehsPerHour="50" type="car"/>
    <flow id="f_23_early_afternoon" begin="28800" end="36000" from="-E13" to="E10" vehsPerHour="45" type="car"/>
    <flow id="f_23_late_afternoon" begin="36000" end="43200" from="-E13" to="E10" vehsPerHour="180" type="car"/>

    <!-- Routes from -E21 -->
    <flow id="f_24_early_morning" begin="0" end="7200" from="-E21" to="E6" vehsPerHour="60" type="car"/>
    <flow id="f_24_morning_peak" begin="7200" end="10800" from="-E21" to="E6" vehsPerHour="120" type="car"/>
    <flow id="f_24_late_morning" begin="10800" end="21600" from="-E21" to="E6" vehsPerHour="65" type="car"/>
    <flow id="f_24_lunch" begin="21600" end="28800" from="-E21" to="E6" vehsPerHour="55" type="car"/>
    <flow id="f_24_early_afternoon" begin="28800" end="36000" from="-E21" to="E6" vehsPerHour="50" type="car"/>
    <flow id="f_24_late_afternoon" begin="36000" end="43200" from="-E21" to="E6" vehsPerHour="200" type="car"/>
    <flow id="f_25_early_morning" begin="0" end="7200" from="-E21" to="E15" vehsPerHour="108" type="car"/>
    <flow id="f_25_morning_peak" begin="7200" end="10800" from="-E21" to="E15" vehsPerHour="216" type="car"/>
    <flow id="f_25_late_morning" begin="10800" end="21600" from="-E21" to="E15" vehsPerHour="117" type="car"/>
    <flow id="f_25_lunch" begin="21600" end="28800" from="-E21" to="E15" vehsPerHour="99" type="car"/>
    <flow id="f_25_early_afternoon" begin="28800" end="36000" from="-E21" to="E15" vehsPerHour="90" type="car"/>
    <flow id="f_25_late_afternoon" begin="36000" end="43200" from="-E21" to="E15" vehsPerHour="360" type="car"/>
    <flow id="f_26_early_morning" begin="0" end="7200" from="-E21" to="E11" vehsPerHour="54" type="car"/>
    <flow id="f_26_morning_peak" begin="7200" end="10800" from="-E21" to="E11" vehsPerHour="108" type="car"/>
    <flow id="f_26_late_morning" begin="10800" end="21600" from="-E21" to="E11" vehsPerHour="58" type="car"/>
    <flow id="f_26_lunch" begin="21600" end="28800" from="-E21" to="E11" vehsPerHour="50" type="car"/>
    <flow id="f_26_early_afternoon" begin="28800" end="36000" from="-E21" to="E11" vehsPerHour="45" type="car"/>
    <flow id="f_26_late_afternoon" begin="36000" end="43200" from="-E21" to="E11" vehsPerHour="180" type="car"/>
    <flow id="f_27_early_morning" begin="0" end="7200" from="-E21" to="E12" vehsPerHour="48" type="car"/>
    <flow id="f_27_morning_peak" begin="7200" end="10800" from="-E21" to="E12" vehsPerHour="96" type="car"/>
    <flow id="f_27_late_morning" begin="10800" end="21600" from="-E21" to="E12" vehsPerHour="52" type="car"/>
    <flow id="f_27_lunch" begin="21600" end="28800" from="-E21" to="E12" vehsPerHour="44" type="car"/>
    <flow id="f_27_early_afternoon" begin="28800" end="36000" from="-E21" to="E12" vehsPerHour="40" type="car"/>
    <flow id="f_27_late_afternoon" begin="36000" end="43200" from="-E21" to="E12" vehsPerHour="160" type="car"/>

    <!-- Routes from -E24 -->
    <flow id="f_28_early_morning" begin="0" end="7200" from="-E24" to="E11" vehsPerHour="60" type="car"/>
    <flow id="f_28_morning_peak" begin="7200" end="10800" from="-E24" to="E11" vehsPerHour="120" type="car"/>
    <flow id="f_28_late_morning" begin="10800" end="21600" from="-E24" to="E11" vehsPerHour="65" type="car"/>
    <flow id="f_28_lunch" begin="21600" end="28800" from="-E24" to="E11" vehsPerHour="55" type="car"/>
    <flow id="f_28_early_afternoon" begin="28800" end="36000" from="-E24" to="E11" vehsPerHour="50" type="car"/>
    <flow id="f_28_late_afternoon" begin="36000" end="43200" from="-E24" to="E11" vehsPerHour="200" type="car"/>
    <flow id="f_29_early_morning" begin="0" end="7200" from="-E24" to="E15" vehsPerHour="108" type="car"/>
    <flow id="f_29_morning_peak" begin="7200" end="10800" from="-E24" to="E15" vehsPerHour="216" type="car"/>
    <flow id="f_29_late_morning" begin="10800" end="21600" from="-E24" to="E15" vehsPerHour="117" type="car"/>
    <flow id="f_29_lunch" begin="21600" end="28800" from="-E24" to="E15" vehsPerHour="99" type="car"/>
    <flow id="f_29_early_afternoon" begin="28800" end="36000" from="-E24" to="E15" vehsPerHour="90" type="car"/>
    <flow id="f_29_late_afternoon" begin="36000" end="43200" from="-E24" to="E15" vehsPerHour="360" type="car"/>
    <flow id="f_30_early_morning" begin="0" end="7200" from="-E24" to="E13" vehsPerHour="54" type="car"/>
    <flow id="f_30_morning_peak" begin="7200" end="10800" from="-E24" to="E13" vehsPerHour="108" type="car"/>
    <flow id="f_30_late_morning" begin="10800" end="21600" from="-E24" to="E13" vehsPerHour="58" type="car"/>
    <flow id="f_30_lunch" begin="21600" end="28800" from="-E24" to="E13" vehsPerHour="50" type="car"/>
    <flow id="f_30_early_afternoon" begin="28800" end="36000" from="-E24" to="E13" vehsPerHour="45" type="car"/>
    <flow id="f_30_late_afternoon" begin="36000" end="43200" from="-E24" to="E13" vehsPerHour="180" type="car"/>
    <flow id="f_31_early_morning" begin="0" end="7200" from="-E24" to="E6" vehsPerHour="60" type="car"/>
    <flow id="f_31_morning_peak" begin="7200" end="10800" from="-E24" to="E6" vehsPerHour="120" type="car"/>
    <flow id="f_31_late_morning" begin="10800" end="21600" from="-E24" to="E6" vehsPerHour="65" type="car"/>
    <flow id="f_31_lunch" begin="21600" end="28800" from="-E24" to="E6" vehsPerHour="55" type="car"/>
    <flow id="f_31_early_afternoon" begin="28800" end="36000" from="-E24" to="E6" vehsPerHour="50" type="car"/>
    <flow id="f_31_late_afternoon" begin="36000" end="43200" from="-E24" to="E6" vehsPerHour="200" type="car"/>

    <!-- Routes from -E6 -->
    <flow id="f_32_early_morning" begin="0" end="7200" from="-E6" to="E24" vehsPerHour="90" type="car"/>
    <flow id="f_32_morning_peak" begin="7200" end="10800" from="-E6" to="E24" vehsPerHour="180" type="car"/>
    <flow id="f_32_late_morning" begin="10800" end="21600" from="-E6" to="E24" vehsPerHour="98" type="car"/>
    <flow id="f_32_lunch" begin="21600" end="28800" from="-E6" to="E24" vehsPerHour="82" type="car"/>
    <flow id="f_32_early_afternoon" begin="28800" end="36000" from="-E6" to="E24" vehsPerHour="75" type="car"/>
    <flow id="f_32_late_afternoon" begin="36000" end="43200" from="-E6" to="E24" vehsPerHour="300" type="car"/>
    <flow id="f_33_early_morning" begin="0" end="7200" from="-E6" to="E9" vehsPerHour="48" type="car"/>
    <flow id="f_33_morning_peak" begin="7200" end="10800" from="-E6" to="E9" vehsPerHour="96" type="car"/>
    <flow id="f_33_late_morning" begin="10800" end="21600" from="-E6" to="E9" vehsPerHour="52" type="car"/>
    <flow id="f_33_lunch" begin="21600" end="28800" from="-E6" to="E9" vehsPerHour="44" type="car"/>
    <flow id="f_33_early_afternoon" begin="28800" end="36000" from="-E6" to="E9" vehsPerHour="40" type="car"/>
    <flow id="f_33_late_afternoon" begin="36000" end="43200" from="-E6" to="E9" vehsPerHour="160" type="car"/>
    <flow id="f_34_early_morning" begin="0" end="7200" from="-E6" to="E21" vehsPerHour="84" type="car"/>
    <flow id="f_34_morning_peak" begin="7200" end="10800" from="-E6" to="E21" vehsPerHour="168" type="car"/>
    <flow id="f_34_late_morning" begin="10800" end="21600" from="-E6" to="E21" vehsPerHour="91" type="car"/>
    <flow id="f_34_lunch" begin="21600" end="28800" from="-E6" to="E21" vehsPerHour="77" type="car"/>
    <flow id="f_34_early_afternoon" begin="28800" end="36000" from="-E6" to="E21" vehsPerHour="70" type="car"/>
    <flow id="f_34_late_afternoon" begin="36000" end="43200" from="-E6" to="E21" vehsPerHour="280" type="car"/>
    <flow id="f_35_early_morning" begin="0" end="7200" from="-E6" to="E13" vehsPerHour="54" type="car"/>
    <flow id="f_35_morning_peak" begin="7200" end="10800" from="-E6" to="E13" vehsPerHour="108" type="car"/>
    <flow id="f_35_late_morning" begin="10800" end="21600" from="-E6" to="E13" vehsPerHour="58" type="car"/>
    <flow id="f_35_lunch" begin="21600" end="28800" from="-E6" to="E13" vehsPerHour="50" type="car"/>
    <flow id="f_35_early_afternoon" begin="28800" end="36000" from="-E6" to="E13" vehsPerHour="45" type="car"/>
    <flow id="f_35_late_afternoon" begin="36000" end="43200" from="-E6" to="E13" vehsPerHour="180" type="car"/>
    <flow id="f_36_early_morning" begin="0" end="7200" from="-E6" to="E12" vehsPerHour="48" type="car"/>
    <flow id="f_36_morning_peak" begin="7200" end="10800" from="-E6" to="E12" vehsPerHour="96" type="car"/>
    <flow id="f_36_late_morning" begin="10800" end="21600" from="-E6" to="E12" vehsPerHour="52" type="car"/>
    <flow id="f_36_lunch" begin="21600" end="28800" from="-E6" to="E12" vehsPerHour="44" type="car"/>
    <flow id="f_36_early_afternoon" begin="28800" end="36000" from="-E6" to="E12" vehsPerHour="40" type="car"/>
    <flow id="f_36_late_afternoon" begin="36000" end="43200" from="-E6" to="E12" vehsPerHour="160" type="car"/>
    <flow id="f_37_early_morning" begin="0" end="7200" from="-E6" to="E11" vehsPerHour="54" type="car"/>
    <flow id="f_37_morning_peak" begin="7200" end="10800" from="-E6" to="E11" vehsPerHour="108" type="car"/>
    <flow id="f_37_late_morning" begin="10800" end="21600" from="-E6" to="E11" vehsPerHour="58" type="car"/>
    <flow id="f_37_lunch" begin="21600" end="28800" from="-E6" to="E11" vehsPerHour="50" type="car"/>
    <flow id="f_37_early_afternoon" begin="28800" end="36000" from="-E6" to="E11" vehsPerHour="45" type="car"/>
    <flow id="f_37_late_afternoon" begin="36000" end="43200" from="-E6" to="E11" vehsPerHour="180" type="car"/>
    <flow id="f_38_early_morning" begin="0" end="7200" from="-E6" to="E15" vehsPerHour="96" type="car"/>
    <flow id="f_38_morning_peak" begin="7200" end="10800" from="-E6" to="E15" vehsPerHour="192" type="car"/>
    <flow id="f_38_late_morning" begin="10800" end="21600" from="-E6" to="E15" vehsPerHour="104" type="car"/>
    <flow id="f_38_lunch" begin="21600" end="28800" from="-E6" to="E15" vehsPerHour="88" type="car"/>
    <flow id="f_38_early_afternoon" begin="28800" end="36000" from="-E6" to="E15" vehsPerHour="80" type="car"/>
    <flow id="f_38_late_afternoon" begin="36000" end="43200" from="-E6" to="E15" vehsPerHour="320" type="car"/>

</routes>