<?xml version="1.0" encoding="UTF-8"?>
<routes xmlns:xsi="http://www.w3.org/2001/XMLSchema-instance" xsi:noNamespaceSchemaLocation="http://sumo.dlr.de/xsd/routes_file.xsd">
    <vType id="DEFAULT_VEHTYPE"/>
    <vType id="passenger" vClass="passenger"/>
    <vType id="bus" vClass="bus"/>
    <vType id="truck" vClass="truck"/>

    <flow id="b_1_early_morning" begin="0.00" from="-E15" to="E24" via="E4 -E5 E16" end="3600.00" vehsPerHour="6" type="bus"/>
    <flow id="b_1_morning_peak" begin="3600.00" from="-E15" to="E24" via="E4 -E5 E16" end="7200.00" vehsPerHour="17" type="bus"/>
    <flow id="b_1_midday" begin="7200.00" from="-E15" to="E24" via="E4 -E5 E16" end="10800.00" vehsPerHour="30" type="bus"/>
    <flow id="b_1_afternoon" begin="10800.00" from="-E15" to="E24" via="E4 -E5 E16" end="14400.00" vehsPerHour="25" type="bus"/>
    <flow id="b_1_evening_peak" begin="14400.00" from="-E15" to="E24" via="E4 -E5 E16" end="18000.00" vehsPerHour="34" type="bus"/>
    <flow id="b_1_night" begin="18000.00" from="-E15" to="E24" via="E4 -E5 E16" end="21600.00" vehsPerHour="10" type="bus"/>

    <flow id="b_2_early_morning" begin="0.00" from="-E15" to="E21" via="-E18 E19 E20" end="3600.00" vehsPerHour="6" type="bus"/>
    <flow id="b_2_morning_peak" begin="3600.00" from="-E15" to="E21" via="-E18 E19 E20" end="7200.00" vehsPerHour="17" type="bus"/>
    <flow id="b_2_midday" begin="7200.00" from="-E15" to="E21" via="-E18 E19 E20" end="10800.00" vehsPerHour="30" type="bus"/>
    <flow id="b_2_afternoon" begin="10800.00" from="-E15" to="E21" via="-E18 E19 E20" end="14400.00" vehsPerHour="25" type="bus"/>
    <flow id="b_2_evening_peak" begin="14400.00" from="-E15" to="E21" via="-E18 E19 E20" end="18000.00" vehsPerHour="34" type="bus"/>
    <flow id="b_2_night" begin="18000.00" from="-E15" to="E21" via="-E18 E19 E20" end="21600.00" vehsPerHour="10" type="bus"/>

    <flow id="f_0_early_morning" begin="0.00" from="-E15" to="E24" via="E4 -E5 E16" end="3600.00" vehsPerHour="111" type="passenger"/>
    <flow id="f_0_morning_peak" begin="3600.00" from="-E15" to="E24" via="E4 -E5 E16" end="7200.00" vehsPerHour="278" type="passenger"/>
    <flow id="f_0_midday" begin="7200.00" from="-E15" to="E24" via="E4 -E5 E16" end="10800.00" vehsPerHour="500" type="passenger"/>
    <flow id="f_0_afternoon" begin="10800.00" from="-E15" to="E24" via="E4 -E5 E16" end="14400.00" vehsPerHour="417" type="passenger"/>
    <flow id="f_0_evening_peak" begin="14400.00" from="-E15" to="E24" via="E4 -E5 E16" end="18000.00" vehsPerHour="556" type="passenger"/>
    <flow id="f_0_night" begin="18000.00" from="-E15" to="E24" via="E4 -E5 E16" end="21600.00" vehsPerHour="166" type="passenger"/>

    <flow id="f_1_early_morning" begin="0.00" from="-E15" to="E21" via="-E18 E19 E20" end="3600.00" vehsPerHour="105" type="passenger"/>
    <flow id="f_1_morning_peak" begin="3600.00" from="-E15" to="E21" via="-E18 E19 E20" end="7200.00" vehsPerHour="263" type="passenger"/>
    <flow id="f_1_midday" begin="7200.00" from="-E15" to="E21" via="-E18 E19 E20" end="10800.00" vehsPerHour="473" type="passenger"/>
    <flow id="f_1_afternoon" begin="10800.00" from="-E15" to="E21" via="-E18 E19 E20" end="14400.00" vehsPerHour="394" type="passenger"/>
    <flow id="f_1_evening_peak" begin="14400.00" from="-E15" to="E21" via="-E18 E19 E20" end="18000.00" vehsPerHour="526" type="passenger"/>
    <flow id="f_1_night" begin="18000.00" from="-E15" to="E21" via="-E18 E19 E20" end="21600.00" vehsPerHour="157" type="passenger"/>

    <flow id="f_16_early_morning" begin="0.00" from="-E11" to="E21" end="3600.00" vehsPerHour="71" type="passenger"/>
    <flow id="f_16_morning_peak" begin="3600.00" from="-E11" to="E21" end="7200.00" vehsPerHour="178" type="passenger"/>
    <flow id="f_16_midday" begin="7200.00" from="-E11" to="E21" end="10800.00" vehsPerHour="320" type="passenger"/>
    <flow id="f_16_afternoon" begin="10800.00" from="-E11" to="E21" end="14400.00" vehsPerHour="267" type="passenger"/>
    <flow id="f_16_evening_peak" begin="14400.00" from="-E11" to="E21" end="18000.00" vehsPerHour="356" type="passenger"/>
    <flow id="f_16_night" begin="18000.00" from="-E11" to="E21" end="21600.00" vehsPerHour="106" type="passenger"/>

    <flow id="f_17_early_morning" begin="0.00" from="-E12" to="E15" end="3600.00" vehsPerHour="76" type="passenger"/>
    <flow id="f_17_morning_peak" begin="3600.00" from="-E12" to="E15" end="7200.00" vehsPerHour="191" type="passenger"/>
    <flow id="f_17_midday" begin="7200.00" from="-E12" to="E15" end="10800.00" vehsPerHour="343" type="passenger"/>
    <flow id="f_17_afternoon" begin="10800.00" from="-E12" to="E15" end="14400.00" vehsPerHour="286" type="passenger"/>
    <flow id="f_17_evening_peak" begin="14400.00" from="-E12" to="E15" end="18000.00" vehsPerHour="382" type="passenger"/>
    <flow id="f_17_night" begin="18000.00" from="-E12" to="E15" end="21600.00" vehsPerHour="114" type="passenger"/>

    <flow id="f_19_early_morning" begin="0.00" from="-E13" to="E9" end="3600.00" vehsPerHour="64" type="passenger"/>
    <flow id="f_19_morning_peak" begin="3600.00" from="-E13" to="E9" end="7200.00" vehsPerHour="161" type="passenger"/>
    <flow id="f_19_midday" begin="7200.00" from="-E13" to="E9" end="10800.00" vehsPerHour="289" type="passenger"/>
    <flow id="f_19_afternoon" begin="10800.00" from="-E13" to="E9" end="14400.00" vehsPerHour="241" type="passenger"/>
    <flow id="f_19_evening_peak" begin="14400.00" from="-E13" to="E9" end="18000.00" vehsPerHour="322" type="passenger"/>
    <flow id="f_19_night" begin="18000.00" from="-E13" to="E9" end="21600.00" vehsPerHour="96" type="passenger"/>

    <flow id="f_2_early_morning" begin="0.00" from="-E15" to="E10" via="-E18 -E17" end="3600.00" vehsPerHour="98" type="passenger"/>
    <flow id="f_2_morning_peak" begin="3600.00" from="-E15" to="E10" via="-E18 -E17" end="7200.00" vehsPerHour="246" type="passenger"/>
    <flow id="f_2_midday" begin="7200.00" from="-E15" to="E10" via="-E18 -E17" end="10800.00" vehsPerHour="442" type="passenger"/>
    <flow id="f_2_afternoon" begin="10800.00" from="-E15" to="E10" via="-E18 -E17" end="14400.00" vehsPerHour="369" type="passenger"/>
    <flow id="f_2_evening_peak" begin="14400.00" from="-E15" to="E10" via="-E18 -E17" end="18000.00" vehsPerHour="492" type="passenger"/>
    <flow id="f_2_night" begin="18000.00" from="-E15" to="E10" via="-E18 -E17" end="21600.00" vehsPerHour="147" type="passenger"/>

    <flow id="f_20_early_morning" begin="0.00" from="-E13" to="E15" end="3600.00" vehsPerHour="82" type="passenger"/>
    <flow id="f_20_morning_peak" begin="3600.00" from="-E13" to="E15" end="7200.00" vehsPerHour="206" type="passenger"/>
    <flow id="f_20_midday" begin="7200.00" from="-E13" to="E15" end="10800.00" vehsPerHour="370" type="passenger"/>
    <flow id="f_20_afternoon" begin="10800.00" from="-E13" to="E15" end="14400.00" vehsPerHour="309" type="passenger"/>
    <flow id="f_20_evening_peak" begin="14400.00" from="-E13" to="E15" end="18000.00" vehsPerHour="412" type="passenger"/>
    <flow id="f_20_night" begin="18000.00" from="-E13" to="E15" end="21600.00" vehsPerHour="123" type="passenger"/>

    <flow id="f_21_early_morning" begin="0.00" from="-E24" to="E12" via="-E23" end="3600.00" vehsPerHour="73" type="passenger"/>
    <flow id="f_21_morning_peak" begin="3600.00" from="-E24" to="E12" via="-E23" end="7200.00" vehsPerHour="184" type="passenger"/>
    <flow id="f_21_midday" begin="7200.00" from="-E24" to="E12" via="-E23" end="10800.00" vehsPerHour="331" type="passenger"/>
    <flow id="f_21_afternoon" begin="10800.00" from="-E24" to="E12" via="-E23" end="14400.00" vehsPerHour="276" type="passenger"/>
    <flow id="f_21_evening_peak" begin="14400.00" from="-E24" to="E12" via="-E23" end="18000.00" vehsPerHour="368" type="passenger"/>
    <flow id="f_21_night" begin="18000.00" from="-E24" to="E12" via="-E23" end="21600.00" vehsPerHour="110" type="passenger"/>

    <flow id="f_22_early_morning" begin="0.00" from="-E24" to="E15" end="3600.00" vehsPerHour="79" type="passenger"/>
    <flow id="f_22_morning_peak" begin="3600.00" from="-E24" to="E15" end="7200.00" vehsPerHour="199" type="passenger"/>
    <flow id="f_22_midday" begin="7200.00" from="-E24" to="E15" end="10800.00" vehsPerHour="358" type="passenger"/>
    <flow id="f_22_afternoon" begin="10800.00" from="-E24" to="E15" end="14400.00" vehsPerHour="298" type="passenger"/>
    <flow id="f_22_evening_peak" begin="14400.00" from="-E24" to="E15" end="18000.00" vehsPerHour="398" type="passenger"/>
    <flow id="f_22_night" begin="18000.00" from="-E24" to="E15" end="21600.00" vehsPerHour="119" type="passenger"/>

    <flow id="f_23_early_morning" begin="0.00" from="-E21" to="E15" end="3600.00" vehsPerHour="86" type="passenger"/>
    <flow id="f_23_morning_peak" begin="3600.00" from="-E21" to="E15" end="7200.00" vehsPerHour="215" type="passenger"/>
    <flow id="f_23_midday" begin="7200.00" from="-E21" to="E15" end="10800.00" vehsPerHour="387" type="passenger"/>
    <flow id="f_23_afternoon" begin="10800.00" from="-E21" to="E15" end="14400.00" vehsPerHour="322" type="passenger"/>
    <flow id="f_23_evening_peak" begin="14400.00" from="-E21" to="E15" end="18000.00" vehsPerHour="430" type="passenger"/>
    <flow id="f_23_night" begin="18000.00" from="-E21" to="E15" end="21600.00" vehsPerHour="129" type="passenger"/>

    <flow id="f_24_early_morning" begin="0.00" from="-E21" to="E10" end="3600.00" vehsPerHour="70" type="passenger"/>
    <flow id="f_24_morning_peak" begin="3600.00" from="-E21" to="E10" end="7200.00" vehsPerHour="175" type="passenger"/>
    <flow id="f_24_midday" begin="7200.00" from="-E21" to="E10" end="10800.00" vehsPerHour="315" type="passenger"/>
    <flow id="f_24_afternoon" begin="10800.00" from="-E21" to="E10" end="14400.00" vehsPerHour="262" type="passenger"/>
    <flow id="f_24_evening_peak" begin="14400.00" from="-E21" to="E10" end="18000.00" vehsPerHour="350" type="passenger"/>
    <flow id="f_24_night" begin="18000.00" from="-E21" to="E10" end="21600.00" vehsPerHour="105" type="passenger"/>

    <flow id="f_25_early_morning" begin="0.00" from="E10" to="E15" end="3600.00" vehsPerHour="57" type="passenger"/>
    <flow id="f_25_morning_peak" begin="3600.00" from="E10" to="E15" end="7200.00" vehsPerHour="144" type="passenger"/>
    <flow id="f_25_midday" begin="7200.00" from="E10" to="E15" end="10800.00" vehsPerHour="259" type="passenger"/>
    <flow id="f_25_afternoon" begin="10800.00" from="E10" to="E15" end="14400.00" vehsPerHour="216" type="passenger"/>
    <flow id="f_25_evening_peak" begin="14400.00" from="E10" to="E15" end="18000.00" vehsPerHour="288" type="passenger"/>
    <flow id="f_25_night" begin="18000.00" from="E10" to="E15" end="21600.00" vehsPerHour="86" type="passenger"/>

    <flow id="f_26_early_morning" begin="0.00" from="E9" to="E12" end="3600.00" vehsPerHour="81" type="passenger"/>
    <flow id="f_26_morning_peak" begin="3600.00" from="E9" to="E12" end="7200.00" vehsPerHour="204" type="passenger"/>
    <flow id="f_26_midday" begin="7200.00" from="E9" to="E12" end="10800.00" vehsPerHour="367" type="passenger"/>
    <flow id="f_26_afternoon" begin="10800.00" from="E9" to="E12" end="14400.00" vehsPerHour="306" type="passenger"/>
    <flow id="f_26_evening_peak" begin="14400.00" from="E9" to="E12" end="18000.00" vehsPerHour="408" type="passenger"/>
    <flow id="f_26_night" begin="18000.00" from="E9" to="E12" end="21600.00" vehsPerHour="122" type="passenger"/>

    <flow id="f_27_early_morning" begin="0.00" from="E9" to="E24" via="-E9 E17 E19 E0.55 E16" end="3600.00" vehsPerHour="55" type="passenger"/>
    <flow id="f_27_morning_peak" begin="3600.00" from="E9" to="E24" via="-E9 E17 E19 E0.55 E16" end="7200.00" vehsPerHour="139" type="passenger"/>
    <flow id="f_27_midday" begin="7200.00" from="E9" to="E24" via="-E9 E17 E19 E0.55 E16" end="10800.00" vehsPerHour="250" type="passenger"/>
    <flow id="f_27_afternoon" begin="10800.00" from="E9" to="E24" via="-E9 E17 E19 E0.55 E16" end="14400.00" vehsPerHour="208" type="passenger"/>
    <flow id="f_27_evening_peak" begin="14400.00" from="E9" to="E24" via="-E9 E17 E19 E0.55 E16" end="18000.00" vehsPerHour="278" type="passenger"/>
    <flow id="f_27_night" begin="18000.00" from="E9" to="E24" via="-E9 E17 E19 E0.55 E16" end="21600.00" vehsPerHour="83" type="passenger"/>

    <flow id="f_3_early_morning" begin="0.00" from="E6" to="E24" via="E16" end="3600.00" vehsPerHour="91" type="passenger"/>
    <flow id="f_3_morning_peak" begin="3600.00" from="E6" to="E24" via="E16" end="7200.00" vehsPerHour="229" type="passenger"/>
    <flow id="f_3_midday" begin="7200.00" from="E6" to="E24" via="E16" end="10800.00" vehsPerHour="412" type="passenger"/>
    <flow id="f_3_afternoon" begin="10800.00" from="E6" to="E24" via="E16" end="14400.00" vehsPerHour="343" type="passenger"/>
    <flow id="f_3_evening_peak" begin="14400.00" from="E6" to="E24" via="E16" end="18000.00" vehsPerHour="458" type="passenger"/>
    <flow id="f_3_night" begin="18000.00" from="E6" to="E24" via="E16" end="21600.00" vehsPerHour="137" type="passenger"/>

    <flow id="f_4_early_morning" begin="0.00" from="E6" to="E21" end="3600.00" vehsPerHour="101" type="passenger"/>
    <flow id="f_4_morning_peak" begin="3600.00" from="E6" to="E21" end="7200.00" vehsPerHour="253" type="passenger"/>
    <flow id="f_4_midday" begin="7200.00" from="E6" to="E21" end="10800.00" vehsPerHour="455" type="passenger"/>
    <flow id="f_4_afternoon" begin="10800.00" from="E6" to="E21" end="14400.00" vehsPerHour="379" type="passenger"/>
    <flow id="f_4_evening_peak" begin="14400.00" from="E6" to="E21" end="18000.00" vehsPerHour="506" type="passenger"/>
    <flow id="f_4_night" begin="18000.00" from="E6" to="E21" end="21600.00" vehsPerHour="151" type="passenger"/>

    <flow id="t_1_early_morning" begin="0.00" from="-E15" to="E10" via="-E18 -E17" end="3600.00" vehsPerHour="5" type="truck"/>
    <flow id="t_1_morning_peak" begin="3600.00" from="-E15" to="E10" via="-E18 -E17" end="7200.00" vehsPerHour="14" type="truck"/>
    <flow id="t_1_midday" begin="7200.00" from="-E15" to="E10" via="-E18 -E17" end="10800.00" vehsPerHour="25" type="truck"/>
    <flow id="t_1_afternoon" begin="10800.00" from="-E15" to="E10" via="-E18 -E17" end="14400.00" vehsPerHour="21" type="truck"/>
    <flow id="t_1_evening_peak" begin="14400.00" from="-E15" to="E10" via="-E18 -E17" end="18000.00" vehsPerHour="28" type="truck"/>
    <flow id="t_1_night" begin="18000.00" from="-E15" to="E10" via="-E18 -E17" end="21600.00" vehsPerHour="8" type="truck"/>

    <flow id="t_2_early_morning" begin="0.00" from="E6" to="E24" via="E16" end="3600.00" vehsPerHour="4" type="truck"/>
    <flow id="t_2_morning_peak" begin="3600.00" from="E6" to="E24" via="E16" end="7200.00" vehsPerHour="12" type="truck"/>
    <flow id="t_2_midday" begin="7200.00" from="E6" to="E24" via="E16" end="10800.00" vehsPerHour="22" type="truck"/>
    <flow id="t_2_afternoon" begin="10800.00" from="E6" to="E24" via="E16" end="14400.00" vehsPerHour="18" type="truck"/>
    <flow id="t_2_evening_peak" begin="14400.00" from="E6" to="E24" via="E16" end="18000.00" vehsPerHour="24" type="truck"/>
    <flow id="t_2_night" begin="18000.00" from="E6" to="E24" via="E16" end="21600.00" vehsPerHour="7" type="truck"/>

</routes>