<?xml version="1.0" encoding="UTF-8"?>

<!-- 24-Hour Realistic Traffic Pattern with Time-of-Day Variation -->
<!-- Morning Rush: 7am-9am, Evening Rush: 5pm-7pm, Night: Low traffic -->

<routes xmlns:xsi="http://www.w3.org/2001/XMLSchema-instance" xsi:noNamespaceSchemaLocation="http://sumo.dlr.de/xsd/routes_file.xsd">
    <!-- VTypes -->
    <vType id="DEFAULT_VEHTYPE"/>
    <vType id="passenger" vClass="passenger"/>
    <vType id="bus" vClass="bus"/>
    <vType id="truck" vClass="truck"/>
    
    <!-- TIME PERIODS (in seconds):
         Night:           0 - 21600  (12am-6am)   → Low traffic
         Morning:     21600 - 32400  (6am-9am)    → Rising to rush hour
         Day:         32400 - 61200  (9am-5pm)    → Moderate traffic
         Evening:     61200 - 72000  (5pm-8pm)    → Rush hour
         Late Night:  72000 - 86400  (8pm-12am)   → Declining traffic
    -->
    
    <!-- ==== MAJOR ROUTES: High volume, time-varying ==== -->
    
    <!-- Route f_0: Major corridor -E15 to E24 -->
    <!-- Night (12am-6am): 50 veh/h -->
    <flow id="f_0_night" begin="0.00" from="-E15" to="E24" via="E4 -E5 E16" end="21600.00" vehsPerHour="50" type="passenger"/>
    <!-- Morning (6am-9am): 400 veh/h (rush hour) -->
    <flow id="f_0_morning" begin="21600.00" from="-E15" to="E24" via="E4 -E5 E16" end="32400.00" vehsPerHour="400" type="passenger"/>
    <!-- Day (9am-5pm): 250 veh/h -->
    <flow id="f_0_day" begin="32400.00" from="-E15" to="E24" via="E4 -E5 E16" end="61200.00" vehsPerHour="250" type="passenger"/>
    <!-- Evening (5pm-8pm): 450 veh/h (peak rush) -->
    <flow id="f_0_evening" begin="61200.00" from="-E15" to="E24" via="E4 -E5 E16" end="72000.00" vehsPerHour="450" type="passenger"/>
    <!-- Late night (8pm-12am): 100 veh/h -->
    <flow id="f_0_latenight" begin="72000.00" from="-E15" to="E24" via="E4 -E5 E16" end="86400.00" vehsPerHour="100" type="passenger"/>
    
    <!-- Route f_1: Major corridor -E15 to E21 -->
    <flow id="f_1_night" begin="0.00" from="-E15" to="E21" via="-E18 E19 E20" end="21600.00" vehsPerHour="50" type="passenger"/>
    <flow id="f_1_morning" begin="21600.00" from="-E15" to="E21" via="-E18 E19 E20" end="32400.00" vehsPerHour="400" type="passenger"/>
    <flow id="f_1_day" begin="32400.00" from="-E15" to="E21" via="-E18 E19 E20" end="61200.00" vehsPerHour="250" type="passenger"/>
    <flow id="f_1_evening" begin="61200.00" from="-E15" to="E21" via="-E18 E19 E20" end="72000.00" vehsPerHour="450" type="passenger"/>
    <flow id="f_1_latenight" begin="72000.00" from="-E15" to="E21" via="-E18 E19 E20" end="86400.00" vehsPerHour="100" type="passenger"/>
    
    <!-- Route f_2: Major corridor -E15 to E10 -->
    <flow id="f_2_night" begin="0.00" from="-E15" to="E10" via="-E18 -E17" end="21600.00" vehsPerHour="50" type="passenger"/>
    <flow id="f_2_morning" begin="21600.00" from="-E15" to="E10" via="-E18 -E17" end="32400.00" vehsPerHour="400" type="passenger"/>
    <flow id="f_2_day" begin="32400.00" from="-E15" to="E10" via="-E18 -E17" end="61200.00" vehsPerHour="250" type="passenger"/>
    <flow id="f_2_evening" begin="61200.00" from="-E15" to="E10" via="-E18 -E17" end="72000.00" vehsPerHour="450" type="passenger"/>
    <flow id="f_2_latenight" begin="72000.00" from="-E15" to="E10" via="-E18 -E17" end="86400.00" vehsPerHour="100" type="passenger"/>
    
    <!-- ==== MEDIUM ROUTES: Moderate volume ==== -->
    
    <!-- Route f_16: -E11 to E21 -->
    <flow id="f_16_night" begin="0.00" from="-E11" to="E21" end="21600.00" vehsPerHour="30" type="passenger"/>
    <flow id="f_16_morning" begin="21600.00" from="-E11" to="E21" end="32400.00" vehsPerHour="280" type="passenger"/>
    <flow id="f_16_day" begin="32400.00" from="-E11" to="E21" end="61200.00" vehsPerHour="180" type="passenger"/>
    <flow id="f_16_evening" begin="61200.00" from="-E11" to="E21" end="72000.00" vehsPerHour="300" type="passenger"/>
    <flow id="f_16_latenight" begin="72000.00" from="-E11" to="E21" end="86400.00" vehsPerHour="60" type="passenger"/>
    
    <!-- Route f_17: -E12 to E15 -->
    <flow id="f_17_night" begin="0.00" from="-E12" to="E15" end="21600.00" vehsPerHour="30" type="passenger"/>
    <flow id="f_17_morning" begin="21600.00" from="-E12" to="E15" end="32400.00" vehsPerHour="280" type="passenger"/>
    <flow id="f_17_day" begin="32400.00" from="-E12" to="E15" end="61200.00" vehsPerHour="180" type="passenger"/>
    <flow id="f_17_evening" begin="61200.00" from="-E12" to="E15" end="72000.00" vehsPerHour="300" type="passenger"/>
    <flow id="f_17_latenight" begin="72000.00" from="-E12" to="E15" end="86400.00" vehsPerHour="60" type="passenger"/>
    
    <!-- Route f_19: -E13 to E9 -->
    <flow id="f_19_night" begin="0.00" from="-E13" to="E9" end="21600.00" vehsPerHour="30" type="passenger"/>
    <flow id="f_19_morning" begin="21600.00" from="-E13" to="E9" end="32400.00" vehsPerHour="280" type="passenger"/>
    <flow id="f_19_day" begin="32400.00" from="-E13" to="E9" end="61200.00" vehsPerHour="180" type="passenger"/>
    <flow id="f_19_evening" begin="61200.00" from="-E13" to="E9" end="72000.00" vehsPerHour="300" type="passenger"/>
    <flow id="f_19_latenight" begin="72000.00" from="-E13" to="E9" end="86400.00" vehsPerHour="60" type="passenger"/>
    
    <!-- Route f_20: -E13 to E15 -->
    <flow id="f_20_night" begin="0.00" from="-E13" to="E15" end="21600.00" vehsPerHour="30" type="passenger"/>
    <flow id="f_20_morning" begin="21600.00" from="-E13" to="E15" end="32400.00" vehsPerHour="280" type="passenger"/>
    <flow id="f_20_day" begin="32400.00" from="-E13" to="E15" end="61200.00" vehsPerHour="180" type="passenger"/>
    <flow id="f_20_evening" begin="61200.00" from="-E13" to="E15" end="72000.00" vehsPerHour="300" type="passenger"/>
    <flow id="f_20_latenight" begin="72000.00" from="-E13" to="E15" end="86400.00" vehsPerHour="60" type="passenger"/>
    
    <!-- Route f_21: -E24 to E12 -->
    <flow id="f_21_night" begin="0.00" from="-E24" to="E12" via="-E23" end="21600.00" vehsPerHour="30" type="passenger"/>
    <flow id="f_21_morning" begin="21600.00" from="-E24" to="E12" via="-E23" end="32400.00" vehsPerHour="280" type="passenger"/>
    <flow id="f_21_day" begin="32400.00" from="-E24" to="E12" via="-E23" end="61200.00" vehsPerHour="180" type="passenger"/>
    <flow id="f_21_evening" begin="61200.00" from="-E24" to="E12" via="-E23" end="72000.00" vehsPerHour="300" type="passenger"/>
    <flow id="f_21_latenight" begin="72000.00" from="-E24" to="E12" via="-E23" end="86400.00" vehsPerHour="60" type="passenger"/>
    
    <!-- Route f_22: -E24 to E15 -->
    <flow id="f_22_night" begin="0.00" from="-E24" to="E15" end="21600.00" vehsPerHour="30" type="passenger"/>
    <flow id="f_22_morning" begin="21600.00" from="-E24" to="E15" end="32400.00" vehsPerHour="280" type="passenger"/>
    <flow id="f_22_day" begin="32400.00" from="-E24" to="E15" end="61200.00" vehsPerHour="180" type="passenger"/>
    <flow id="f_22_evening" begin="61200.00" from="-E24" to="E15" end="72000.00" vehsPerHour="300" type="passenger"/>
    <flow id="f_22_latenight" begin="72000.00" from="-E24" to="E15" end="86400.00" vehsPerHour="60" type="passenger"/>
    
    <!-- Route f_23: -E21 to E15 -->
    <flow id="f_23_night" begin="0.00" from="-E21" to="E15" end="21600.00" vehsPerHour="30" type="passenger"/>
    <flow id="f_23_morning" begin="21600.00" from="-E21" to="E15" end="32400.00" vehsPerHour="280" type="passenger"/>
    <flow id="f_23_day" begin="32400.00" from="-E21" to="E15" end="61200.00" vehsPerHour="180" type="passenger"/>
    <flow id="f_23_evening" begin="61200.00" from="-E21" to="E15" end="72000.00" vehsPerHour="300" type="passenger"/>
    <flow id="f_23_latenight" begin="72000.00" from="-E21" to="E15" end="86400.00" vehsPerHour="60" type="passenger"/>
    
    <!-- Route f_24: -E21 to E10 -->
    <flow id="f_24_night" begin="0.00" from="-E21" to="E10" end="21600.00" vehsPerHour="30" type="passenger"/>
    <flow id="f_24_morning" begin="21600.00" from="-E21" to="E10" end="32400.00" vehsPerHour="280" type="passenger"/>
    <flow id="f_24_day" begin="32400.00" from="-E21" to="E10" end="61200.00" vehsPerHour="180" type="passenger"/>
    <flow id="f_24_evening" begin="61200.00" from="-E21" to="E10" end="72000.00" vehsPerHour="300" type="passenger"/>
    <flow id="f_24_latenight" begin="72000.00" from="-E21" to="E10" end="86400.00" vehsPerHour="60" type="passenger"/>
    
    <!-- Route f_25: -E21 to E12 -->
    <flow id="f_25_night" begin="0.00" from="-E21" to="E12" end="21600.00" vehsPerHour="30" type="passenger"/>
    <flow id="f_25_morning" begin="21600.00" from="-E21" to="E12" end="32400.00" vehsPerHour="280" type="passenger"/>
    <flow id="f_25_day" begin="32400.00" from="-E21" to="E12" end="61200.00" vehsPerHour="180" type="passenger"/>
    <flow id="f_25_evening" begin="61200.00" from="-E21" to="E12" end="72000.00" vehsPerHour="300" type="passenger"/>
    <flow id="f_25_latenight" begin="72000.00" from="-E21" to="E12" end="86400.00" vehsPerHour="60" type="passenger"/>
    
    <!-- Route f_26: -E21 to E6 -->
    <flow id="f_26_night" begin="0.00" from="-E21" to="E6" end="21600.00" vehsPerHour="30" type="passenger"/>
    <flow id="f_26_morning" begin="21600.00" from="-E21" to="E6" end="32400.00" vehsPerHour="280" type="passenger"/>
    <flow id="f_26_day" begin="32400.00" from="-E21" to="E6" end="61200.00" vehsPerHour="180" type="passenger"/>
    <flow id="f_26_evening" begin="61200.00" from="-E21" to="E6" end="72000.00" vehsPerHour="300" type="passenger"/>
    <flow id="f_26_latenight" begin="72000.00" from="-E21" to="E6" end="86400.00" vehsPerHour="60" type="passenger"/>
    
    <!-- Route f_27: -E6 to E11 -->
    <flow id="f_27_night" begin="0.00" from="-E6" to="E11" end="21600.00" vehsPerHour="30" type="passenger"/>
    <flow id="f_27_morning" begin="21600.00" from="-E6" to="E11" end="32400.00" vehsPerHour="280" type="passenger"/>
    <flow id="f_27_day" begin="32400.00" from="-E6" to="E11" end="61200.00" vehsPerHour="180" type="passenger"/>
    <flow id="f_27_evening" begin="61200.00" from="-E6" to="E11" end="72000.00" vehsPerHour="300" type="passenger"/>
    <flow id="f_27_latenight" begin="72000.00" from="-E6" to="E11" end="86400.00" vehsPerHour="60" type="passenger"/>
    
    <!-- Route f_28: -E6 to E21 -->
    <flow id="f_28_night" begin="0.00" from="-E6" to="E21" end="21600.00" vehsPerHour="30" type="passenger"/>
    <flow id="f_28_morning" begin="21600.00" from="-E6" to="E21" end="32400.00" vehsPerHour="280" type="passenger"/>
    <flow id="f_28_day" begin="32400.00" from="-E6" to="E21" end="61200.00" vehsPerHour="180" type="passenger"/>
    <flow id="f_28_evening" begin="61200.00" from="-E6" to="E21" end="72000.00" vehsPerHour="300" type="passenger"/>
    <flow id="f_28_latenight" begin="72000.00" from="-E6" to="E21" end="86400.00" vehsPerHour="60" type="passenger"/>
    
    <!-- Route f_29: -E6 to E9 -->
    <flow id="f_29_night" begin="0.00" from="-E6" to="E9" end="21600.00" vehsPerHour="30" type="passenger"/>
    <flow id="f_29_morning" begin="21600.00" from="-E6" to="E9" end="32400.00" vehsPerHour="280" type="passenger"/>
    <flow id="f_29_day" begin="32400.00" from="-E6" to="E9" end="61200.00" vehsPerHour="180" type="passenger"/>
    <flow id="f_29_evening" begin="61200.00" from="-E6" to="E9" end="72000.00" vehsPerHour="300" type="passenger"/>
    <flow id="f_29_latenight" begin="72000.00" from="-E6" to="E9" end="86400.00" vehsPerHour="60" type="passenger"/>
    
    <!-- ==== LOW VOLUME ROUTES ==== -->
    
    <!-- Routes f_3, f_4, f_5, etc.: Light traffic throughout day -->
    <flow id="f_3_night" begin="0.00" from="-E15" to="E11" via="-E18 E19 -E0" end="21600.00" vehsPerHour="20" type="passenger"/>
    <flow id="f_3_morning" begin="21600.00" from="-E15" to="E11" via="-E18 E19 -E0" end="32400.00" vehsPerHour="120" type="passenger"/>
    <flow id="f_3_day" begin="32400.00" from="-E15" to="E11" via="-E18 E19 -E0" end="61200.00" vehsPerHour="80" type="passenger"/>
    <flow id="f_3_evening" begin="61200.00" from="-E15" to="E11" via="-E18 E19 -E0" end="72000.00" vehsPerHour="140" type="passenger"/>
    <flow id="f_3_latenight" begin="72000.00" from="-E15" to="E11" via="-E18 E19 -E0" end="86400.00" vehsPerHour="40" type="passenger"/>
    
    <flow id="f_4_night" begin="0.00" from="-E15" to="E12" via="-E18 E19 E20 -E22" end="21600.00" vehsPerHour="20" type="passenger"/>
    <flow id="f_4_morning" begin="21600.00" from="-E15" to="E12" via="-E18 E19 E20 -E22" end="32400.00" vehsPerHour="120" type="passenger"/>
    <flow id="f_4_day" begin="32400.00" from="-E15" to="E12" via="-E18 E19 E20 -E22" end="61200.00" vehsPerHour="80" type="passenger"/>
    <flow id="f_4_evening" begin="61200.00" from="-E15" to="E12" via="-E18 E19 E20 -E22" end="72000.00" vehsPerHour="140" type="passenger"/>
    <flow id="f_4_latenight" begin="72000.00" from="-E15" to="E12" via="-E18 E19 E20 -E22" end="86400.00" vehsPerHour="40" type="passenger"/>
    
    <flow id="f_5_night" begin="0.00" from="-E9" to="E24" via="E17 E19 E0.55 E16" end="21600.00" vehsPerHour="20" type="passenger"/>
    <flow id="f_5_morning" begin="21600.00" from="-E9" to="E24" via="E17 E19 E0.55 E16" end="32400.00" vehsPerHour="120" type="passenger"/>
    <flow id="f_5_day" begin="32400.00" from="-E9" to="E24" via="E17 E19 E0.55 E16" end="61200.00" vehsPerHour="80" type="passenger"/>
    <flow id="f_5_evening" begin="61200.00" from="-E9" to="E24" via="E17 E19 E0.55 E16" end="72000.00" vehsPerHour="140" type="passenger"/>
    <flow id="f_5_latenight" begin="72000.00" from="-E9" to="E24" via="E17 E19 E0.55 E16" end="86400.00" vehsPerHour="40" type="passenger"/>
    
    <flow id="f_6_night" begin="0.00" from="-E9" to="E13" via="E8 E8.59" end="21600.00" vehsPerHour="20" type="passenger"/>
    <flow id="f_6_morning" begin="21600.00" from="-E9" to="E13" via="E8 E8.59" end="32400.00" vehsPerHour="120" type="passenger"/>
    <flow id="f_6_day" begin="32400.00" from="-E9" to="E13" via="E8 E8.59" end="61200.00" vehsPerHour="80" type="passenger"/>
    <flow id="f_6_evening" begin="61200.00" from="-E9" to="E13" via="E8 E8.59" end="72000.00" vehsPerHour="140" type="passenger"/>
    <flow id="f_6_latenight" begin="72000.00" from="-E9" to="E13" via="E8 E8.59" end="86400.00" vehsPerHour="40" type="passenger"/>
    
    <flow id="f_7_night" begin="0.00" from="-E9" to="E11" via="E8" end="21600.00" vehsPerHour="20" type="passenger"/>
    <flow id="f_7_morning" begin="21600.00" from="-E9" to="E11" via="E8" end="32400.00" vehsPerHour="120" type="passenger"/>
    <flow id="f_7_day" begin="32400.00" from="-E9" to="E11" via="E8" end="61200.00" vehsPerHour="80" type="passenger"/>
    <flow id="f_7_evening" begin="61200.00" from="-E9" to="E11" via="E8" end="72000.00" vehsPerHour="140" type="passenger"/>
    <flow id="f_7_latenight" begin="72000.00" from="-E9" to="E11" via="E8" end="86400.00" vehsPerHour="40" type="passenger"/>
    
    <flow id="f_8_night" begin="0.00" from="-E9" to="E6" via="E17" end="21600.00" vehsPerHour="20" type="passenger"/>
    <flow id="f_8_morning" begin="21600.00" from="-E9" to="E6" via="E17" end="32400.00" vehsPerHour="120" type="passenger"/>
    <flow id="f_8_day" begin="32400.00" from="-E9" to="E6" via="E17" end="61200.00" vehsPerHour="80" type="passenger"/>
    <flow id="f_8_evening" begin="61200.00" from="-E9" to="E6" via="E17" end="72000.00" vehsPerHour="140" type="passenger"/>
    <flow id="f_8_latenight" begin="72000.00" from="-E9" to="E6" via="E17" end="86400.00" vehsPerHour="40" type="passenger"/>
    
    <flow id="f_9_night" begin="0.00" from="-E9" to="E21" end="21600.00" vehsPerHour="20" type="passenger"/>
    <flow id="f_9_morning" begin="21600.00" from="-E9" to="E21" end="32400.00" vehsPerHour="120" type="passenger"/>
    <flow id="f_9_day" begin="32400.00" from="-E9" to="E21" end="61200.00" vehsPerHour="80" type="passenger"/>
    <flow id="f_9_evening" begin="61200.00" from="-E9" to="E21" end="72000.00" vehsPerHour="140" type="passenger"/>
    <flow id="f_9_latenight" begin="72000.00" from="-E9" to="E21" end="86400.00" vehsPerHour="40" type="passenger"/>
    
    <flow id="f_10_night" begin="0.00" from="-E9" to="E21" end="21600.00" vehsPerHour="20" type="passenger"/>
    <flow id="f_10_morning" begin="21600.00" from="-E9" to="E21" end="32400.00" vehsPerHour="120" type="passenger"/>
    <flow id="f_10_day" begin="32400.00" from="-E9" to="E21" end="61200.00" vehsPerHour="80" type="passenger"/>
    <flow id="f_10_evening" begin="61200.00" from="-E9" to="E21" end="72000.00" vehsPerHour="140" type="passenger"/>
    <flow id="f_10_latenight" begin="72000.00" from="-E9" to="E21" end="86400.00" vehsPerHour="40" type="passenger"/>
    
    <flow id="f_11_night" begin="0.00" from="-E10" to="E9" end="21600.00" vehsPerHour="20" type="passenger"/>
    <flow id="f_11_morning" begin="21600.00" from="-E10" to="E9" end="32400.00" vehsPerHour="120" type="passenger"/>
    <flow id="f_11_day" begin="32400.00" from="-E10" to="E9" end="61200.00" vehsPerHour="80" type="passenger"/>
    <flow id="f_11_evening" begin="61200.00" from="-E10" to="E9" end="72000.00" vehsPerHour="140" type="passenger"/>
    <flow id="f_11_latenight" begin="72000.00" from="-E10" to="E9" end="86400.00" vehsPerHour="40" type="passenger"/>
    
    <flow id="f_12_night" begin="0.00" from="-E10" to="E6" end="21600.00" vehsPerHour="20" type="passenger"/>
    <flow id="f_12_morning" begin="21600.00" from="-E10" to="E6" end="32400.00" vehsPerHour="120" type="passenger"/>
    <flow id="f_12_day" begin="32400.00" from="-E10" to="E6" end="61200.00" vehsPerHour="80" type="passenger"/>
    <flow id="f_12_evening" begin="61200.00" from="-E10" to="E6" end="72000.00" vehsPerHour="140" type="passenger"/>
    <flow id="f_12_latenight" begin="72000.00" from="-E10" to="E6" end="86400.00" vehsPerHour="40" type="passenger"/>
    
    <flow id="f_13_night" begin="0.00" from="-E10" to="E13" end="21600.00" vehsPerHour="20" type="passenger"/>
    <flow id="f_13_morning" begin="21600.00" from="-E10" to="E13" end="32400.00" vehsPerHour="120" type="passenger"/>
    <flow id="f_13_day" begin="32400.00" from="-E10" to="E13" end="61200.00" vehsPerHour="80" type="passenger"/>
    <flow id="f_13_evening" begin="61200.00" from="-E10" to="E13" end="72000.00" vehsPerHour="140" type="passenger"/>
    <flow id="f_13_latenight" begin="72000.00" from="-E10" to="E13" end="86400.00" vehsPerHour="40" type="passenger"/>
    
    <flow id="f_14_night" begin="0.00" from="-E10" to="E12" end="21600.00" vehsPerHour="20" type="passenger"/>
    <flow id="f_14_morning" begin="21600.00" from="-E10" to="E12" end="32400.00" vehsPerHour="120" type="passenger"/>
    <flow id="f_14_day" begin="32400.00" from="-E10" to="E12" end="61200.00" vehsPerHour="80" type="passenger"/>
    <flow id="f_14_evening" begin="61200.00" from="-E10" to="E12" end="72000.00" vehsPerHour="140" type="passenger"/>
    <flow id="f_14_latenight" begin="72000.00" from="-E10" to="E12" end="86400.00" vehsPerHour="40" type="passenger"/>
    
    <flow id="f_15_night" begin="0.00" from="-E10" to="E24" end="21600.00" vehsPerHour="20" type="passenger"/>
    <flow id="f_15_morning" begin="21600.00" from="-E10" to="E24" end="32400.00" vehsPerHour="120" type="passenger"/>
    <flow id="f_15_day" begin="32400.00" from="-E10" to="E24" end="61200.00" vehsPerHour="80" type="passenger"/>
    <flow id="f_15_evening" begin="61200.00" from="-E10" to="E24" end="72000.00" vehsPerHour="140" type="passenger"/>
    <flow id="f_15_latenight" begin="72000.00" from="-E10" to="E24" end="86400.00" vehsPerHour="40" type="passenger"/>
    
    <flow id="f_18_night" begin="0.00" from="-E12" to="E6" end="21600.00" vehsPerHour="20" type="passenger"/>
    <flow id="f_18_morning" begin="21600.00" from="-E12" to="E6" end="32400.00" vehsPerHour="120" type="passenger"/>
    <flow id="f_18_day" begin="32400.00" from="-E12" to="E6" end="61200.00" vehsPerHour="80" type="passenger"/>
    <flow id="f_18_evening" begin="61200.00" from="-E12" to="E6" end="72000.00" vehsPerHour="140" type="passenger"/>
    <flow id="f_18_latenight" begin="72000.00" from="-E12" to="E6" end="86400.00" vehsPerHour="40" type="passenger"/>
    
</routes>
