<?xml version="1.0" encoding="UTF-8"?>

<!-- 1-Hour Heavy Traffic Scenario for Intensive Training -->
<!-- 39 validated routes from original.rou.xml -->
<!-- Heavy traffic: ~8,000+ vehicles/hour total -->

<routes xmlns:xsi="http://www.w3.org/2001/XMLSchema-instance" xsi:noNamespaceSchemaLocation="http://sumo.dlr.de/xsd/routes_file.xsd">

    <!-- Vehicle Type -->
    <vType id="car" accel="2.6" decel="4.5" sigma="0.5" length="5" maxSpeed="50"/>

    <!-- Heavy Traffic Flows (39 routes) -->
    <!-- Routes from -E9 -->
    <flow id="f_0" begin="0" end="3600" from="-E9" to="E13" vehsPerHour="200" type="car"/>
    <flow id="f_1" begin="0" end="3600" from="-E9" to="E6" vehsPerHour="200" type="car"/>
    <flow id="f_2" begin="0" end="3600" from="-E9" to="E24" vehsPerHour="240" type="car"/>
    <flow id="f_3" begin="0" end="3600" from="-E9" to="E10" vehsPerHour="160" type="car"/>
    <flow id="f_4" begin="0" end="3600" from="-E9" to="E21" vehsPerHour="180" type="car"/>

    <!-- Routes from -E10 -->
    <flow id="f_5" begin="0" end="3600" from="-E10" to="E6" vehsPerHour="200" type="car"/>
    <flow id="f_6" begin="0" end="3600" from="-E10" to="E21" vehsPerHour="300" type="car"/>
    <flow id="f_7" begin="0" end="3600" from="-E10" to="E15" vehsPerHour="360" type="car"/>
    <flow id="f_8" begin="0" end="3600" from="-E10" to="E24" vehsPerHour="240" type="car"/>
    <flow id="f_9" begin="0" end="3600" from="-E10" to="E13" vehsPerHour="160" type="car"/>

    <!-- Routes from -E11 -->
    <flow id="f_10" begin="0" end="3600" from="-E11" to="E6" vehsPerHour="180" type="car"/>
    <flow id="f_11" begin="0" end="3600" from="-E11" to="E9" vehsPerHour="160" type="car"/>
    <flow id="f_12" begin="0" end="3600" from="-E11" to="E13" vehsPerHour="140" type="car"/>
    <flow id="f_13" begin="0" end="3600" from="-E11" to="E15" vehsPerHour="200" type="car"/>
    <flow id="f_14" begin="0" end="3600" from="-E11" to="E24" vehsPerHour="300" type="car"/>

    <!-- Routes from -E12 -->
    <flow id="f_15" begin="0" end="3600" from="-E12" to="E9" vehsPerHour="160" type="car"/>
    <flow id="f_16" begin="0" end="3600" from="-E12" to="E6" vehsPerHour="180" type="car"/>
    <flow id="f_17" begin="0" end="3600" from="-E12" to="E15" vehsPerHour="200" type="car"/>
    <flow id="f_18" begin="0" end="3600" from="-E12" to="E24" vehsPerHour="220" type="car"/>

    <!-- Routes from -E13 -->
    <flow id="f_19" begin="0" end="3600" from="-E13" to="E24" vehsPerHour="240" type="car"/>
    <flow id="f_20" begin="0" end="3600" from="-E13" to="E6" vehsPerHour="200" type="car"/>
    <flow id="f_21" begin="0" end="3600" from="-E13" to="E15" vehsPerHour="220" type="car"/>
    <flow id="f_22" begin="0" end="3600" from="-E13" to="E10" vehsPerHour="180" type="car"/>

    <!-- Routes from -E21 -->
    <flow id="f_23" begin="0" end="3600" from="-E21" to="E6" vehsPerHour="200" type="car"/>
    <flow id="f_24" begin="0" end="3600" from="-E21" to="E15" vehsPerHour="360" type="car"/>
    <flow id="f_25" begin="0" end="3600" from="-E21" to="E11" vehsPerHour="180" type="car"/>
    <flow id="f_26" begin="0" end="3600" from="-E21" to="E12" vehsPerHour="160" type="car"/>

    <!-- Routes from -E24 -->
    <flow id="f_27" begin="0" end="3600" from="-E24" to="E11" vehsPerHour="200" type="car"/>
    <flow id="f_28" begin="0" end="3600" from="-E24" to="E15" vehsPerHour="360" type="car"/>
    <flow id="f_29" begin="0" end="3600" from="-E24" to="E13" vehsPerHour="180" type="car"/>
    <flow id="f_30" begin="0" end="3600" from="-E24" to="E6" vehsPerHour="200" type="car"/>

    <!-- Routes from -E6 -->
    <flow id="f_31" begin="0" end="3600" from="-E6" to="E24" vehsPerHour="300" type="car"/>
    <flow id="f_32" begin="0" end="3600" from="-E6" to="E9" vehsPerHour="160" type="car"/>
    <flow id="f_33" begin="0" end="3600" from="-E6" to="E21" vehsPerHour="280" type="car"/>
    <flow id="f_34" begin="0" end="3600" from="-E6" to="E13" vehsPerHour="180" type="car"/>
    <flow id="f_35" begin="0" end="3600" from="-E6" to="E12" vehsPerHour="160" type="car"/>
    <flow id="f_36" begin="0" end="3600" from="-E6" to="E11" vehsPerHour="180" type="car"/>
    <flow id="f_37" begin="0" end="3600" from="-E6" to="E15" vehsPerHour="320" type="car"/>

</routes>