<?xml version="1.0" encoding="UTF-8"?>

<!-- generated on 2025-12-04 16:36:31 by Eclipse SUMO duarouter Version 1.24.0
This data file and the accompanying materials
are made available under the terms of the Eclipse Public License v2.0
which accompanies this distribution, and is available at
http://www.eclipse.org/legal/epl-v20.html
This file may also be made available under the following Secondary
Licenses when the conditions for such availability set forth in the Eclipse
Public License 2.0 are satisfied: GNU General Public License, version 2
or later which is available at
https://www.gnu.org/licenses/old-licenses/gpl-2.0-standalone.html
SPDX-License-Identifier: EPL-2.0 OR GPL-2.0-or-later
<duarouterConfiguration xmlns:xsi="http://www.w3.org/2001/XMLSchema-instance" xsi:noNamespaceSchemaLocation="http://sumo.dlr.de/xsd/duarouterConfiguration.xsd">

    <input>
        <net-file value="D:\Codes\Projects\Traffic-Light-Automation\s1\k1.net.xml"/>
        <route-files value="D:\Codes\Projects\Traffic-Light-Automation\s1\k1_routes_6h_weekday.rou.xml"/>
    </input>

    <output>
        <output-file value="D:\Codes\Projects\Traffic-Light-Automation\s1\k1_routes_6h_weekday_precomputed.rou.xml"/>
        <write-license value="true"/>
    </output>

    <processing>
        <remove-loops value="true"/>
        <repair value="true"/>
        <routing-algorithm value="dijkstra"/>
    </processing>

    <report>
        <no-warnings value="true"/>
        <ignore-errors value="true"/>
    </report>

</duarouterConfiguration>
-->

<routes xmlns:xsi="http://www.w3.org/2001/XMLSchema-instance" xsi:noNamespaceSchemaLocation="http://sumo.dlr.de/xsd/routes_file.xsd">
    <vType id="bus" vClass="bus"/>
    <vehicle id="b_1_early_morning.0" type="bus" depart="0.00">
        <route edges="-E15 E4 -E5 E16 E24"/>
    </vehicle>
    <vehicle id="b_1_early_morning.1" type="bus" depart="450.00">
        <route edges="-E15 E4 -E5 E16 E24"/>
    </vehicle>
    <vehicle id="b_1_early_morning.2" type="bus" depart="900.00">
        <route edges="-E15 E4 -E5 E16 E24"/>
    </vehicle>
    <vehicle id="b_1_early_morning.3" type="bus" depart="1350.00">
        <route edges="-E15 E4 -E5 E16 E24"/>
    </vehicle>
    <vehicle id="b_1_early_morning.4" type="bus" depart="1800.00">
        <route edges="-E15 E4 -E5 E16 E24"/>
    </vehicle>
    <vehicle id="b_1_early_morning.5" type="bus" depart="2250.00">
        <route edges="-E15 E4 -E5 E16 E24"/>
    </vehicle>
    <vehicle id="b_1_early_morning.6" type="bus" depart="2700.00">
        <route edges="-E15 E4 -E5 E16 E24"/>
    </vehicle>
    <vehicle id="b_1_early_morning.7" type="bus" depart="3150.00">
        <route edges="-E15 E4 -E5 E16 E24"/>
    </vehicle>
    <vehicle id="b_1_morning_peak.0" type="bus" depart="3600.00">
        <route edges="-E15 E4 -E5 E16 E24"/>
    </vehicle>
    <vehicle id="b_1_morning_peak.1" type="bus" depart="3733.33">
        <route edges="-E15 E4 -E5 E16 E24"/>
    </vehicle>
    <vehicle id="b_1_morning_peak.2" type="bus" depart="3866.67">
        <route edges="-E15 E4 -E5 E16 E24"/>
    </vehicle>
    <vehicle id="b_1_morning_peak.3" type="bus" depart="4000.00">
        <route edges="-E15 E4 -E5 E16 E24"/>
    </vehicle>
    <vehicle id="b_1_morning_peak.4" type="bus" depart="4133.33">
        <route edges="-E15 E4 -E5 E16 E24"/>
    </vehicle>
    <vehicle id="b_1_morning_peak.5" type="bus" depart="4266.67">
        <route edges="-E15 E4 -E5 E16 E24"/>
    </vehicle>
    <vehicle id="b_1_morning_peak.6" type="bus" depart="4400.00">
        <route edges="-E15 E4 -E5 E16 E24"/>
    </vehicle>
    <vehicle id="b_1_morning_peak.7" type="bus" depart="4533.33">
        <route edges="-E15 E4 -E5 E16 E24"/>
    </vehicle>
    <vehicle id="b_1_morning_peak.8" type="bus" depart="4666.66">
        <route edges="-E15 E4 -E5 E16 E24"/>
    </vehicle>
    <vehicle id="b_1_morning_peak.9" type="bus" depart="4800.00">
        <route edges="-E15 E4 -E5 E16 E24"/>
    </vehicle>
    <vehicle id="b_1_morning_peak.10" type="bus" depart="4933.33">
        <route edges="-E15 E4 -E5 E16 E24"/>
    </vehicle>
    <vehicle id="b_1_morning_peak.11" type="bus" depart="5066.66">
        <route edges="-E15 E4 -E5 E16 E24"/>
    </vehicle>
    <vehicle id="b_1_morning_peak.12" type="bus" depart="5200.00">
        <route edges="-E15 E4 -E5 E16 E24"/>
    </vehicle>
    <vehicle id="b_1_morning_peak.13" type="bus" depart="5333.33">
        <route edges="-E15 E4 -E5 E16 E24"/>
    </vehicle>
    <vehicle id="b_1_morning_peak.14" type="bus" depart="5466.66">
        <route edges="-E15 E4 -E5 E16 E24"/>
    </vehicle>
    <vehicle id="b_1_morning_peak.15" type="bus" depart="5600.00">
        <route edges="-E15 E4 -E5 E16 E24"/>
    </vehicle>
    <vehicle id="b_1_morning_peak.16" type="bus" depart="5733.33">
        <route edges="-E15 E4 -E5 E16 E24"/>
    </vehicle>
    <vehicle id="b_1_morning_peak.17" type="bus" depart="5866.66">
        <route edges="-E15 E4 -E5 E16 E24"/>
    </vehicle>
    <vehicle id="b_1_morning_peak.18" type="bus" depart="5999.99">
        <route edges="-E15 E4 -E5 E16 E24"/>
    </vehicle>
    <vehicle id="b_1_morning_peak.19" type="bus" depart="6133.33">
        <route edges="-E15 E4 -E5 E16 E24"/>
    </vehicle>
    <vehicle id="b_1_morning_peak.20" type="bus" depart="6266.66">
        <route edges="-E15 E4 -E5 E16 E24"/>
    </vehicle>
    <vehicle id="b_1_morning_peak.21" type="bus" depart="6399.99">
        <route edges="-E15 E4 -E5 E16 E24"/>
    </vehicle>
    <vehicle id="b_1_morning_peak.22" type="bus" depart="6533.33">
        <route edges="-E15 E4 -E5 E16 E24"/>
    </vehicle>
    <vehicle id="b_1_morning_peak.23" type="bus" depart="6666.66">
        <route edges="-E15 E4 -E5 E16 E24"/>
    </vehicle>
    <vehicle id="b_1_morning_peak.24" type="bus" depart="6799.99">
        <route edges="-E15 E4 -E5 E16 E24"/>
    </vehicle>
    <vehicle id="b_1_morning_peak.25" type="bus" depart="6933.33">
        <route edges="-E15 E4 -E5 E16 E24"/>
    </vehicle>
    <vehicle id="b_1_morning_peak.26" type="bus" depart="7066.66">
        <route edges="-E15 E4 -E5 E16 E24"/>
    </vehicle>
    <vehicle id="b_1_morning_peak.27" type="bus" depart="7199.99">
        <route edges="-E15 E4 -E5 E16 E24"/>
    </vehicle>
    <vehicle id="b_1_midday.0" type="bus" depart="7200.00">
        <route edges="-E15 E4 -E5 E16 E24"/>
    </vehicle>
    <vehicle id="b_1_midday.1" type="bus" depart="7411.77">
        <route edges="-E15 E4 -E5 E16 E24"/>
    </vehicle>
    <vehicle id="b_1_midday.2" type="bus" depart="7623.53">
        <route edges="-E15 E4 -E5 E16 E24"/>
    </vehicle>
    <vehicle id="b_1_midday.3" type="bus" depart="7835.30">
        <route edges="-E15 E4 -E5 E16 E24"/>
    </vehicle>
    <vehicle id="b_1_midday.4" type="bus" depart="8047.06">
        <route edges="-E15 E4 -E5 E16 E24"/>
    </vehicle>
    <vehicle id="b_1_midday.5" type="bus" depart="8258.83">
        <route edges="-E15 E4 -E5 E16 E24"/>
    </vehicle>
    <vehicle id="b_1_midday.6" type="bus" depart="8470.59">
        <route edges="-E15 E4 -E5 E16 E24"/>
    </vehicle>
    <vehicle id="b_1_midday.7" type="bus" depart="8682.36">
        <route edges="-E15 E4 -E5 E16 E24"/>
    </vehicle>
    <vehicle id="b_1_midday.8" type="bus" depart="8894.12">
        <route edges="-E15 E4 -E5 E16 E24"/>
    </vehicle>
    <vehicle id="b_1_midday.9" type="bus" depart="9105.89">
        <route edges="-E15 E4 -E5 E16 E24"/>
    </vehicle>
    <vehicle id="b_1_midday.10" type="bus" depart="9317.65">
        <route edges="-E15 E4 -E5 E16 E24"/>
    </vehicle>
    <vehicle id="b_1_midday.11" type="bus" depart="9529.42">
        <route edges="-E15 E4 -E5 E16 E24"/>
    </vehicle>
    <vehicle id="b_1_midday.12" type="bus" depart="9741.18">
        <route edges="-E15 E4 -E5 E16 E24"/>
    </vehicle>
    <vehicle id="b_1_midday.13" type="bus" depart="9952.95">
        <route edges="-E15 E4 -E5 E16 E24"/>
    </vehicle>
    <vehicle id="b_1_midday.14" type="bus" depart="10164.71">
        <route edges="-E15 E4 -E5 E16 E24"/>
    </vehicle>
    <vehicle id="b_1_midday.15" type="bus" depart="10376.48">
        <route edges="-E15 E4 -E5 E16 E24"/>
    </vehicle>
    <vehicle id="b_1_midday.16" type="bus" depart="10588.24">
        <route edges="-E15 E4 -E5 E16 E24"/>
    </vehicle>
    <vehicle id="b_1_afternoon.0" type="bus" depart="10800.00">
        <route edges="-E15 E4 -E5 E16 E24"/>
    </vehicle>
    <vehicle id="b_1_afternoon.1" type="bus" depart="11040.00">
        <route edges="-E15 E4 -E5 E16 E24"/>
    </vehicle>
    <vehicle id="b_1_afternoon.2" type="bus" depart="11280.00">
        <route edges="-E15 E4 -E5 E16 E24"/>
    </vehicle>
    <vehicle id="b_1_afternoon.3" type="bus" depart="11520.00">
        <route edges="-E15 E4 -E5 E16 E24"/>
    </vehicle>
    <vehicle id="b_1_afternoon.4" type="bus" depart="11760.00">
        <route edges="-E15 E4 -E5 E16 E24"/>
    </vehicle>
    <vehicle id="b_1_afternoon.5" type="bus" depart="12000.00">
        <route edges="-E15 E4 -E5 E16 E24"/>
    </vehicle>
    <vehicle id="b_1_afternoon.6" type="bus" depart="12240.00">
        <route edges="-E15 E4 -E5 E16 E24"/>
    </vehicle>
    <vehicle id="b_1_afternoon.7" type="bus" depart="12480.00">
        <route edges="-E15 E4 -E5 E16 E24"/>
    </vehicle>
    <vehicle id="b_1_afternoon.8" type="bus" depart="12720.00">
        <route edges="-E15 E4 -E5 E16 E24"/>
    </vehicle>
    <vehicle id="b_1_afternoon.9" type="bus" depart="12960.00">
        <route edges="-E15 E4 -E5 E16 E24"/>
    </vehicle>
    <vehicle id="b_1_afternoon.10" type="bus" depart="13200.00">
        <route edges="-E15 E4 -E5 E16 E24"/>
    </vehicle>
    <vehicle id="b_1_afternoon.11" type="bus" depart="13440.00">
        <route edges="-E15 E4 -E5 E16 E24"/>
    </vehicle>
    <vehicle id="b_1_afternoon.12" type="bus" depart="13680.00">
        <route edges="-E15 E4 -E5 E16 E24"/>
    </vehicle>
    <vehicle id="b_1_afternoon.13" type="bus" depart="13920.00">
        <route edges="-E15 E4 -E5 E16 E24"/>
    </vehicle>
    <vehicle id="b_1_afternoon.14" type="bus" depart="14160.00">
        <route edges="-E15 E4 -E5 E16 E24"/>
    </vehicle>
    <vehicle id="b_1_evening_peak.0" type="bus" depart="14400.00">
        <route edges="-E15 E4 -E5 E16 E24"/>
    </vehicle>
    <vehicle id="b_1_evening_peak.1" type="bus" depart="14528.57">
        <route edges="-E15 E4 -E5 E16 E24"/>
    </vehicle>
    <vehicle id="b_1_evening_peak.2" type="bus" depart="14657.14">
        <route edges="-E15 E4 -E5 E16 E24"/>
    </vehicle>
    <vehicle id="b_1_evening_peak.3" type="bus" depart="14785.71">
        <route edges="-E15 E4 -E5 E16 E24"/>
    </vehicle>
    <vehicle id="b_1_evening_peak.4" type="bus" depart="14914.28">
        <route edges="-E15 E4 -E5 E16 E24"/>
    </vehicle>
    <vehicle id="b_1_evening_peak.5" type="bus" depart="15042.86">
        <route edges="-E15 E4 -E5 E16 E24"/>
    </vehicle>
    <vehicle id="b_1_evening_peak.6" type="bus" depart="15171.43">
        <route edges="-E15 E4 -E5 E16 E24"/>
    </vehicle>
    <vehicle id="b_1_evening_peak.7" type="bus" depart="15300.00">
        <route edges="-E15 E4 -E5 E16 E24"/>
    </vehicle>
    <vehicle id="b_1_evening_peak.8" type="bus" depart="15428.57">
        <route edges="-E15 E4 -E5 E16 E24"/>
    </vehicle>
    <vehicle id="b_1_evening_peak.9" type="bus" depart="15557.14">
        <route edges="-E15 E4 -E5 E16 E24"/>
    </vehicle>
    <vehicle id="b_1_evening_peak.10" type="bus" depart="15685.71">
        <route edges="-E15 E4 -E5 E16 E24"/>
    </vehicle>
    <vehicle id="b_1_evening_peak.11" type="bus" depart="15814.28">
        <route edges="-E15 E4 -E5 E16 E24"/>
    </vehicle>
    <vehicle id="b_1_evening_peak.12" type="bus" depart="15942.85">
        <route edges="-E15 E4 -E5 E16 E24"/>
    </vehicle>
    <vehicle id="b_1_evening_peak.13" type="bus" depart="16071.42">
        <route edges="-E15 E4 -E5 E16 E24"/>
    </vehicle>
    <vehicle id="b_1_evening_peak.14" type="bus" depart="16199.99">
        <route edges="-E15 E4 -E5 E16 E24"/>
    </vehicle>
    <vehicle id="b_1_evening_peak.15" type="bus" depart="16328.57">
        <route edges="-E15 E4 -E5 E16 E24"/>
    </vehicle>
    <vehicle id="b_1_evening_peak.16" type="bus" depart="16457.14">
        <route edges="-E15 E4 -E5 E16 E24"/>
    </vehicle>
    <vehicle id="b_1_evening_peak.17" type="bus" depart="16585.71">
        <route edges="-E15 E4 -E5 E16 E24"/>
    </vehicle>
    <vehicle id="b_1_evening_peak.18" type="bus" depart="16714.28">
        <route edges="-E15 E4 -E5 E16 E24"/>
    </vehicle>
    <vehicle id="b_1_evening_peak.19" type="bus" depart="16842.85">
        <route edges="-E15 E4 -E5 E16 E24"/>
    </vehicle>
    <vehicle id="b_1_evening_peak.20" type="bus" depart="16971.42">
        <route edges="-E15 E4 -E5 E16 E24"/>
    </vehicle>
    <vehicle id="b_1_evening_peak.21" type="bus" depart="17099.99">
        <route edges="-E15 E4 -E5 E16 E24"/>
    </vehicle>
    <vehicle id="b_1_evening_peak.22" type="bus" depart="17228.56">
        <route edges="-E15 E4 -E5 E16 E24"/>
    </vehicle>
    <vehicle id="b_1_evening_peak.23" type="bus" depart="17357.13">
        <route edges="-E15 E4 -E5 E16 E24"/>
    </vehicle>
    <vehicle id="b_1_evening_peak.24" type="bus" depart="17485.70">
        <route edges="-E15 E4 -E5 E16 E24"/>
    </vehicle>
    <vehicle id="b_1_evening_peak.25" type="bus" depart="17614.28">
        <route edges="-E15 E4 -E5 E16 E24"/>
    </vehicle>
    <vehicle id="b_1_evening_peak.26" type="bus" depart="17742.85">
        <route edges="-E15 E4 -E5 E16 E24"/>
    </vehicle>
    <vehicle id="b_2_early_morning.0" type="bus" depart="0.00">
        <route edges="-E15 -E18 E19 E20 E21"/>
    </vehicle>
    <vType id="passenger" vClass="passenger"/>
    <vehicle id="f_0_early_morning.0" type="passenger" depart="0.00">
        <route edges="-E15 E4 -E5 E16 E24"/>
    </vehicle>
    <vehicle id="f_16_early_morning.0" type="passenger" depart="0.00">
        <route edges="-E11 E0 E20 E21"/>
    </vehicle>
    <vehicle id="f_17_early_morning.0" type="passenger" depart="0.00">
        <route edges="-E12 E22 -E20 -E19 E18 E15"/>
    </vehicle>
    <vehicle id="f_19_early_morning.0" type="passenger" depart="0.00">
        <route edges="-E13 -E8 -E80 E9"/>
    </vehicle>
    <vehicle id="f_1_early_morning.0" type="passenger" depart="0.00">
        <route edges="-E15 -E18 E19 E20 E21"/>
    </vehicle>
    <vehicle id="f_20_early_morning.0" type="passenger" depart="0.00">
        <route edges="-E13 -E8 E0 -E19 E18 E15"/>
    </vehicle>
    <vehicle id="f_21_early_morning.0" type="passenger" depart="0.00">
        <route edges="-E24 -E23 -E22 E12"/>
    </vehicle>
    <vehicle id="f_22_early_morning.0" type="passenger" depart="0.00">
        <route edges="-E24 -E16 E5 -E4 E15"/>
    </vehicle>
    <vehicle id="f_23_early_morning.0" type="passenger" depart="0.00">
        <route edges="-E21 -E20 -E19 E18 E15"/>
    </vehicle>
    <vehicle id="f_24_early_morning.0" type="passenger" depart="0.00">
        <route edges="-E21 -E20 -E19 -E17 E10"/>
    </vehicle>
    <vehicle id="f_2_early_morning.0" type="passenger" depart="0.00">
        <route edges="-E15 -E18 -E17 E10"/>
    </vehicle>
    <vType id="truck" vClass="truck"/>
    <vehicle id="t_1_early_morning.0" type="truck" depart="0.00">
        <route edges="-E15 -E18 -E17 E10"/>
    </vehicle>
    <vehicle id="f_0_early_morning.1" type="passenger" depart="25.90">
        <route edges="-E15 E4 -E5 E16 E24"/>
    </vehicle>
    <vehicle id="f_1_early_morning.1" type="passenger" depart="27.48">
        <route edges="-E15 -E18 E19 E20 E21"/>
    </vehicle>
    <vehicle id="f_2_early_morning.1" type="passenger" depart="29.27">
        <route edges="-E15 -E18 -E17 E10"/>
    </vehicle>
    <vehicle id="f_23_early_morning.1" type="passenger" depart="33.65">
        <route edges="-E21 -E20 -E19 E18 E15"/>
    </vehicle>
    <vehicle id="f_20_early_morning.1" type="passenger" depart="34.95">
        <route edges="-E13 -E8 E0 -E19 E18 E15"/>
    </vehicle>
    <vehicle id="f_22_early_morning.1" type="passenger" depart="36.36">
        <route edges="-E24 -E16 E5 -E4 E15"/>
    </vehicle>
    <vehicle id="f_17_early_morning.1" type="passenger" depart="37.90">
        <route edges="-E12 E22 -E20 -E19 E18 E15"/>
    </vehicle>
    <vehicle id="f_21_early_morning.1" type="passenger" depart="39.13">
        <route edges="-E24 -E23 -E22 E12"/>
    </vehicle>
    <vehicle id="f_16_early_morning.1" type="passenger" depart="40.45">
        <route edges="-E11 E0 E20 E21"/>
    </vehicle>
    <vehicle id="f_24_early_morning.1" type="passenger" depart="41.38">
        <route edges="-E21 -E20 -E19 -E17 E10"/>
    </vehicle>
    <vehicle id="f_19_early_morning.1" type="passenger" depart="45.00">
        <route edges="-E13 -E8 -E80 E9"/>
    </vehicle>
    <vehicle id="f_0_early_morning.2" type="passenger" depart="51.80">
        <route edges="-E15 E4 -E5 E16 E24"/>
    </vehicle>
    <vehicle id="f_1_early_morning.2" type="passenger" depart="54.96">
        <route edges="-E15 -E18 E19 E20 E21"/>
    </vehicle>
    <vehicle id="f_2_early_morning.2" type="passenger" depart="58.54">
        <route edges="-E15 -E18 -E17 E10"/>
    </vehicle>
    <vehicle id="f_23_early_morning.2" type="passenger" depart="67.29">
        <route edges="-E21 -E20 -E19 E18 E15"/>
    </vehicle>
    <vehicle id="f_20_early_morning.2" type="passenger" depart="69.90">
        <route edges="-E13 -E8 E0 -E19 E18 E15"/>
    </vehicle>
    <vehicle id="f_22_early_morning.2" type="passenger" depart="72.73">
        <route edges="-E24 -E16 E5 -E4 E15"/>
    </vehicle>
    <vehicle id="f_17_early_morning.2" type="passenger" depart="75.79">
        <route edges="-E12 E22 -E20 -E19 E18 E15"/>
    </vehicle>
    <vehicle id="f_0_early_morning.3" type="passenger" depart="77.70">
        <route edges="-E15 E4 -E5 E16 E24"/>
    </vehicle>
    <vehicle id="f_21_early_morning.2" type="passenger" depart="78.26">
        <route edges="-E24 -E23 -E22 E12"/>
    </vehicle>
    <vehicle id="f_16_early_morning.2" type="passenger" depart="80.90">
        <route edges="-E11 E0 E20 E21"/>
    </vehicle>
    <vehicle id="f_1_early_morning.3" type="passenger" depart="82.44">
        <route edges="-E15 -E18 E19 E20 E21"/>
    </vehicle>
    <vehicle id="f_24_early_morning.2" type="passenger" depart="82.76">
        <route edges="-E21 -E20 -E19 -E17 E10"/>
    </vehicle>
    <vehicle id="f_2_early_morning.3" type="passenger" depart="87.80">
        <route edges="-E15 -E18 -E17 E10"/>
    </vehicle>
    <vehicle id="f_19_early_morning.2" type="passenger" depart="90.00">
        <route edges="-E13 -E8 -E80 E9"/>
    </vehicle>
    <vehicle id="f_23_early_morning.3" type="passenger" depart="100.94">
        <route edges="-E21 -E20 -E19 E18 E15"/>
    </vehicle>
    <vehicle id="f_0_early_morning.4" type="passenger" depart="103.60">
        <route edges="-E15 E4 -E5 E16 E24"/>
    </vehicle>
    <vehicle id="f_20_early_morning.3" type="passenger" depart="104.85">
        <route edges="-E13 -E8 E0 -E19 E18 E15"/>
    </vehicle>
    <vehicle id="f_22_early_morning.3" type="passenger" depart="109.09">
        <route edges="-E24 -E16 E5 -E4 E15"/>
    </vehicle>
    <vehicle id="f_1_early_morning.4" type="passenger" depart="109.92">
        <route edges="-E15 -E18 E19 E20 E21"/>
    </vehicle>
    <vehicle id="f_17_early_morning.3" type="passenger" depart="113.69">
        <route edges="-E12 E22 -E20 -E19 E18 E15"/>
    </vehicle>
    <vehicle id="f_2_early_morning.4" type="passenger" depart="117.07">
        <route edges="-E15 -E18 -E17 E10"/>
    </vehicle>
    <vehicle id="f_21_early_morning.3" type="passenger" depart="117.39">
        <route edges="-E24 -E23 -E22 E12"/>
    </vehicle>
    <vehicle id="f_16_early_morning.3" type="passenger" depart="121.35">
        <route edges="-E11 E0 E20 E21"/>
    </vehicle>
    <vehicle id="f_24_early_morning.3" type="passenger" depart="124.14">
        <route edges="-E21 -E20 -E19 -E17 E10"/>
    </vehicle>
    <vehicle id="f_0_early_morning.5" type="passenger" depart="129.50">
        <route edges="-E15 E4 -E5 E16 E24"/>
    </vehicle>
    <vehicle id="f_23_early_morning.4" type="passenger" depart="134.58">
        <route edges="-E21 -E20 -E19 E18 E15"/>
    </vehicle>
    <vehicle id="f_19_early_morning.3" type="passenger" depart="135.00">
        <route edges="-E13 -E8 -E80 E9"/>
    </vehicle>
    <vehicle id="f_1_early_morning.5" type="passenger" depart="137.41">
        <route edges="-E15 -E18 E19 E20 E21"/>
    </vehicle>
    <vehicle id="f_20_early_morning.4" type="passenger" depart="139.80">
        <route edges="-E13 -E8 E0 -E19 E18 E15"/>
    </vehicle>
    <vehicle id="f_22_early_morning.4" type="passenger" depart="145.46">
        <route edges="-E24 -E16 E5 -E4 E15"/>
    </vehicle>
    <vehicle id="f_2_early_morning.5" type="passenger" depart="146.34">
        <route edges="-E15 -E18 -E17 E10"/>
    </vehicle>
    <vehicle id="f_17_early_morning.4" type="passenger" depart="151.58">
        <route edges="-E12 E22 -E20 -E19 E18 E15"/>
    </vehicle>
    <vehicle id="f_0_early_morning.6" type="passenger" depart="155.39">
        <route edges="-E15 E4 -E5 E16 E24"/>
    </vehicle>
    <vehicle id="f_21_early_morning.4" type="passenger" depart="156.52">
        <route edges="-E24 -E23 -E22 E12"/>
    </vehicle>
    <vehicle id="f_16_early_morning.4" type="passenger" depart="161.80">
        <route edges="-E11 E0 E20 E21"/>
    </vehicle>
    <vehicle id="f_1_early_morning.6" type="passenger" depart="164.89">
        <route edges="-E15 -E18 E19 E20 E21"/>
    </vehicle>
    <vehicle id="f_24_early_morning.4" type="passenger" depart="165.52">
        <route edges="-E21 -E20 -E19 -E17 E10"/>
    </vehicle>
    <vehicle id="f_23_early_morning.5" type="passenger" depart="168.23">
        <route edges="-E21 -E20 -E19 E18 E15"/>
    </vehicle>
    <vehicle id="f_20_early_morning.5" type="passenger" depart="174.76">
        <route edges="-E13 -E8 E0 -E19 E18 E15"/>
    </vehicle>
    <vehicle id="f_2_early_morning.6" type="passenger" depart="175.61">
        <route edges="-E15 -E18 -E17 E10"/>
    </vehicle>
    <vehicle id="f_19_early_morning.4" type="passenger" depart="180.00">
        <route edges="-E13 -E8 -E80 E9"/>
    </vehicle>
    <vehicle id="f_0_early_morning.7" type="passenger" depart="181.29">
        <route edges="-E15 E4 -E5 E16 E24"/>
    </vehicle>
    <vehicle id="f_22_early_morning.5" type="passenger" depart="181.82">
        <route edges="-E24 -E16 E5 -E4 E15"/>
    </vehicle>
    <vehicle id="f_17_early_morning.5" type="passenger" depart="189.48">
        <route edges="-E12 E22 -E20 -E19 E18 E15"/>
    </vehicle>
    <vehicle id="f_1_early_morning.7" type="passenger" depart="192.37">
        <route edges="-E15 -E18 E19 E20 E21"/>
    </vehicle>
    <vehicle id="f_21_early_morning.5" type="passenger" depart="195.65">
        <route edges="-E24 -E23 -E22 E12"/>
    </vehicle>
    <vehicle id="f_23_early_morning.6" type="passenger" depart="201.87">
        <route edges="-E21 -E20 -E19 E18 E15"/>
    </vehicle>
    <vehicle id="f_16_early_morning.5" type="passenger" depart="202.25">
        <route edges="-E11 E0 E20 E21"/>
    </vehicle>
    <vehicle id="f_2_early_morning.7" type="passenger" depart="204.88">
        <route edges="-E15 -E18 -E17 E10"/>
    </vehicle>
    <vehicle id="f_24_early_morning.5" type="passenger" depart="206.90">
        <route edges="-E21 -E20 -E19 -E17 E10"/>
    </vehicle>
    <vehicle id="f_0_early_morning.8" type="passenger" depart="207.19">
        <route edges="-E15 E4 -E5 E16 E24"/>
    </vehicle>
    <vehicle id="f_20_early_morning.6" type="passenger" depart="209.71">
        <route edges="-E13 -E8 E0 -E19 E18 E15"/>
    </vehicle>
    <vehicle id="f_22_early_morning.6" type="passenger" depart="218.18">
        <route edges="-E24 -E16 E5 -E4 E15"/>
    </vehicle>
    <vehicle id="f_1_early_morning.8" type="passenger" depart="219.85">
        <route edges="-E15 -E18 E19 E20 E21"/>
    </vehicle>
    <vehicle id="f_19_early_morning.5" type="passenger" depart="225.00">
        <route edges="-E13 -E8 -E80 E9"/>
    </vehicle>
    <vehicle id="f_17_early_morning.6" type="passenger" depart="227.37">
        <route edges="-E12 E22 -E20 -E19 E18 E15"/>
    </vehicle>
    <vehicle id="f_0_early_morning.9" type="passenger" depart="233.09">
        <route edges="-E15 E4 -E5 E16 E24"/>
    </vehicle>
    <vehicle id="f_2_early_morning.8" type="passenger" depart="234.14">
        <route edges="-E15 -E18 -E17 E10"/>
    </vehicle>
    <vehicle id="f_21_early_morning.6" type="passenger" depart="234.78">
        <route edges="-E24 -E23 -E22 E12"/>
    </vehicle>
    <vehicle id="f_23_early_morning.7" type="passenger" depart="235.52">
        <route edges="-E21 -E20 -E19 E18 E15"/>
    </vehicle>
    <vehicle id="f_16_early_morning.6" type="passenger" depart="242.69">
        <route edges="-E11 E0 E20 E21"/>
    </vehicle>
    <vehicle id="f_20_early_morning.7" type="passenger" depart="244.66">
        <route edges="-E13 -E8 E0 -E19 E18 E15"/>
    </vehicle>
    <vehicle id="f_1_early_morning.9" type="passenger" depart="247.33">
        <route edges="-E15 -E18 E19 E20 E21"/>
    </vehicle>
    <vehicle id="f_24_early_morning.6" type="passenger" depart="248.27">
        <route edges="-E21 -E20 -E19 -E17 E10"/>
    </vehicle>
    <vehicle id="f_22_early_morning.7" type="passenger" depart="254.55">
        <route edges="-E24 -E16 E5 -E4 E15"/>
    </vehicle>
    <vehicle id="f_0_early_morning.10" type="passenger" depart="258.99">
        <route edges="-E15 E4 -E5 E16 E24"/>
    </vehicle>
    <vehicle id="f_2_early_morning.9" type="passenger" depart="263.41">
        <route edges="-E15 -E18 -E17 E10"/>
    </vehicle>
    <vehicle id="f_17_early_morning.7" type="passenger" depart="265.27">
        <route edges="-E12 E22 -E20 -E19 E18 E15"/>
    </vehicle>
    <vehicle id="f_23_early_morning.8" type="passenger" depart="269.16">
        <route edges="-E21 -E20 -E19 E18 E15"/>
    </vehicle>
    <vehicle id="f_19_early_morning.6" type="passenger" depart="270.00">
        <route edges="-E13 -E8 -E80 E9"/>
    </vehicle>
    <vehicle id="f_21_early_morning.7" type="passenger" depart="273.91">
        <route edges="-E24 -E23 -E22 E12"/>
    </vehicle>
    <vehicle id="f_1_early_morning.10" type="passenger" depart="274.81">
        <route edges="-E15 -E18 E19 E20 E21"/>
    </vehicle>
    <vehicle id="f_20_early_morning.8" type="passenger" depart="279.61">
        <route edges="-E13 -E8 E0 -E19 E18 E15"/>
    </vehicle>
    <vehicle id="f_16_early_morning.7" type="passenger" depart="283.14">
        <route edges="-E11 E0 E20 E21"/>
    </vehicle>
    <vehicle id="f_0_early_morning.11" type="passenger" depart="284.89">
        <route edges="-E15 E4 -E5 E16 E24"/>
    </vehicle>
    <vehicle id="f_24_early_morning.7" type="passenger" depart="289.65">
        <route edges="-E21 -E20 -E19 -E17 E10"/>
    </vehicle>
    <vehicle id="f_22_early_morning.8" type="passenger" depart="290.91">
        <route edges="-E24 -E16 E5 -E4 E15"/>
    </vehicle>
    <vehicle id="f_2_early_morning.10" type="passenger" depart="292.68">
        <route edges="-E15 -E18 -E17 E10"/>
    </vehicle>
    <vehicle id="f_1_early_morning.11" type="passenger" depart="302.29">
        <route edges="-E15 -E18 E19 E20 E21"/>
    </vehicle>
    <vehicle id="f_23_early_morning.9" type="passenger" depart="302.81">
        <route edges="-E21 -E20 -E19 E18 E15"/>
    </vehicle>
    <vehicle id="f_17_early_morning.8" type="passenger" depart="303.16">
        <route edges="-E12 E22 -E20 -E19 E18 E15"/>
    </vehicle>
    <vehicle id="f_0_early_morning.12" type="passenger" depart="310.79">
        <route edges="-E15 E4 -E5 E16 E24"/>
    </vehicle>
    <vehicle id="f_21_early_morning.8" type="passenger" depart="313.04">
        <route edges="-E24 -E23 -E22 E12"/>
    </vehicle>
    <vehicle id="f_20_early_morning.9" type="passenger" depart="314.56">
        <route edges="-E13 -E8 E0 -E19 E18 E15"/>
    </vehicle>
    <vehicle id="f_19_early_morning.7" type="passenger" depart="315.00">
        <route edges="-E13 -E8 -E80 E9"/>
    </vehicle>
    <vehicle id="f_2_early_morning.11" type="passenger" depart="321.95">
        <route edges="-E15 -E18 -E17 E10"/>
    </vehicle>
    <vehicle id="f_16_early_morning.8" type="passenger" depart="323.59">
        <route edges="-E11 E0 E20 E21"/>
    </vehicle>
    <vehicle id="f_22_early_morning.9" type="passenger" depart="327.28">
        <route edges="-E24 -E16 E5 -E4 E15"/>
    </vehicle>
    <vehicle id="f_1_early_morning.12" type="passenger" depart="329.77">
        <route edges="-E15 -E18 E19 E20 E21"/>
    </vehicle>
    <vehicle id="f_24_early_morning.8" type="passenger" depart="331.03">
        <route edges="-E21 -E20 -E19 -E17 E10"/>
    </vehicle>
    <vehicle id="f_23_early_morning.10" type="passenger" depart="336.45">
        <route edges="-E21 -E20 -E19 E18 E15"/>
    </vehicle>
    <vehicle id="f_0_early_morning.13" type="passenger" depart="336.69">
        <route edges="-E15 E4 -E5 E16 E24"/>
    </vehicle>
    <vehicle id="f_17_early_morning.9" type="passenger" depart="341.06">
        <route edges="-E12 E22 -E20 -E19 E18 E15"/>
    </vehicle>
    <vehicle id="f_20_early_morning.10" type="passenger" depart="349.51">
        <route edges="-E13 -E8 E0 -E19 E18 E15"/>
    </vehicle>
    <vehicle id="f_2_early_morning.12" type="passenger" depart="351.22">
        <route edges="-E15 -E18 -E17 E10"/>
    </vehicle>
    <vehicle id="f_21_early_morning.9" type="passenger" depart="352.17">
        <route edges="-E24 -E23 -E22 E12"/>
    </vehicle>
    <vehicle id="f_1_early_morning.13" type="passenger" depart="357.25">
        <route edges="-E15 -E18 E19 E20 E21"/>
    </vehicle>
    <vehicle id="f_19_early_morning.8" type="passenger" depart="360.00">
        <route edges="-E13 -E8 -E80 E9"/>
    </vehicle>