<?xml version='1.0' encoding='utf-8'?>
<routes xmlns:xsi="http://www.w3.org/2001/XMLSchema-instance" xsi:noNamespaceSchemaLocation="http://sumo.dlr.de/xsd/routes_file.xsd">
    <!-- GRIDLOCK STRESS SCENARIO: 2.5x peak traffic -->
    <vType id="bus" vClass="bus" />
    <vType id="passenger" vClass="passenger" />
    <vType id="truck" vClass="truck" />
    <flow id="grid_r_E9_E13_early_morning" type="passenger" begin="0" end="3600" from="-E9" to="E13" via="E8 E8.59" vehsPerHour="112" />
    <flow id="grid_r_E9_E13_morning_peak" type="passenger" begin="3600" end="7200" from="-E9" to="E13" via="E8 E8.59" vehsPerHour="360" />
    <flow id="grid_r_E9_E13_midday" type="passenger" begin="7200" end="10800" from="-E9" to="E13" via="E8 E8.59" vehsPerHour="225" />
    <flow id="grid_r_E9_E13_afternoon" type="passenger" begin="10800" end="14400" from="-E9" to="E13" via="E8 E8.59" vehsPerHour="202" />
    <flow id="grid_r_E9_E13_evening_peak" type="passenger" begin="14400" end="18000" from="-E9" to="E13" via="E8 E8.59" vehsPerHour="382" />
    <flow id="grid_r_E9_E13_night" type="passenger" begin="18000" end="21600" from="-E9" to="E13" via="E8 E8.59" vehsPerHour="90" />
    <flow id="grid_r_E9_E6_early_morning" type="passenger" begin="0" end="3600" from="-E9" to="E6" via="E8 E0 E0.55 E5" vehsPerHour="100" />
    <flow id="grid_r_E9_E6_morning_peak" type="passenger" begin="3600" end="7200" from="-E9" to="E6" via="E8 E0 E0.55 E5" vehsPerHour="320" />
    <flow id="grid_r_E9_E6_midday" type="passenger" begin="7200" end="10800" from="-E9" to="E6" via="E8 E0 E0.55 E5" vehsPerHour="200" />
    <flow id="grid_r_E9_E6_afternoon" type="passenger" begin="10800" end="14400" from="-E9" to="E6" via="E8 E0 E0.55 E5" vehsPerHour="180" />
    <flow id="grid_r_E9_E6_evening_peak" type="passenger" begin="14400" end="18000" from="-E9" to="E6" via="E8 E0 E0.55 E5" vehsPerHour="340" />
    <flow id="grid_r_E9_E6_night" type="passenger" begin="18000" end="21600" from="-E9" to="E6" via="E8 E0 E0.55 E5" vehsPerHour="80" />
    <flow id="grid_r_E9_E24_early_morning" type="passenger" begin="0" end="3600" from="-E9" to="E24" via="E8 E0 E0.55 E16" vehsPerHour="125" />
    <flow id="grid_r_E9_E24_morning_peak" type="passenger" begin="3600" end="7200" from="-E9" to="E24" via="E8 E0 E0.55 E16" vehsPerHour="400" />
    <flow id="grid_r_E9_E24_midday" type="passenger" begin="7200" end="10800" from="-E9" to="E24" via="E8 E0 E0.55 E16" vehsPerHour="250" />
    <flow id="grid_r_E9_E24_afternoon" type="passenger" begin="10800" end="14400" from="-E9" to="E24" via="E8 E0 E0.55 E16" vehsPerHour="225" />
    <flow id="grid_r_E9_E24_evening_peak" type="passenger" begin="14400" end="18000" from="-E9" to="E24" via="E8 E0 E0.55 E16" vehsPerHour="425" />
    <flow id="grid_r_E9_E24_night" type="passenger" begin="18000" end="21600" from="-E9" to="E24" via="E8 E0 E0.55 E16" vehsPerHour="100" />
    <flow id="grid_r_E9_E21_early_morning" type="passenger" begin="0" end="3600" from="-E9" to="E21" via="E17 E19 E20" vehsPerHour="138" />
    <flow id="grid_r_E9_E21_morning_peak" type="passenger" begin="3600" end="7200" from="-E9" to="E21" via="E17 E19 E20" vehsPerHour="440" />
    <flow id="grid_r_E9_E21_midday" type="passenger" begin="7200" end="10800" from="-E9" to="E21" via="E17 E19 E20" vehsPerHour="275" />
    <flow id="grid_r_E9_E21_afternoon" type="passenger" begin="10800" end="14400" from="-E9" to="E21" via="E17 E19 E20" vehsPerHour="248" />
    <flow id="grid_r_E9_E21_evening_peak" type="passenger" begin="14400" end="18000" from="-E9" to="E21" via="E17 E19 E20" vehsPerHour="468" />
    <flow id="grid_r_E9_E21_night" type="passenger" begin="18000" end="21600" from="-E9" to="E21" via="E17 E19 E20" vehsPerHour="110" />
    <flow id="grid_r_E9_E12_early_morning" type="passenger" begin="0" end="3600" from="-E9" to="E12" via="E8 E8.59" vehsPerHour="105" />
    <flow id="grid_r_E9_E12_morning_peak" type="passenger" begin="3600" end="7200" from="-E9" to="E12" via="E8 E8.59" vehsPerHour="335" />
    <flow id="grid_r_E9_E12_midday" type="passenger" begin="7200" end="10800" from="-E9" to="E12" via="E8 E8.59" vehsPerHour="210" />
    <flow id="grid_r_E9_E12_afternoon" type="passenger" begin="10800" end="14400" from="-E9" to="E12" via="E8 E8.59" vehsPerHour="190" />
    <flow id="grid_r_E9_E12_evening_peak" type="passenger" begin="14400" end="18000" from="-E9" to="E12" via="E8 E8.59" vehsPerHour="358" />
    <flow id="grid_r_E9_E12_night" type="passenger" begin="18000" end="21600" from="-E9" to="E12" via="E8 E8.59" vehsPerHour="85" />
    <flow id="grid_r_E9_E10_early_morning" type="passenger" begin="0" end="3600" from="-E9" to="E10" vehsPerHour="95" />
    <flow id="grid_r_E9_E10_morning_peak" type="passenger" begin="3600" end="7200" from="-E9" to="E10" vehsPerHour="305" />
    <flow id="grid_r_E9_E10_midday" type="passenger" begin="7200" end="10800" from="-E9" to="E10" vehsPerHour="190" />
    <flow id="grid_r_E9_E10_afternoon" type="passenger" begin="10800" end="14400" from="-E9" to="E10" vehsPerHour="170" />
    <flow id="grid_r_E9_E10_evening_peak" type="passenger" begin="14400" end="18000" from="-E9" to="E10" vehsPerHour="322" />
    <flow id="grid_r_E9_E10_night" type="passenger" begin="18000" end="21600" from="-E9" to="E10" vehsPerHour="75" />
    <flow id="grid_r_E10_E9_early_morning" type="passenger" begin="0" end="3600" from="-E10" to="E9" vehsPerHour="120" />
    <flow id="grid_r_E10_E9_morning_peak" type="passenger" begin="3600" end="7200" from="-E10" to="E9" vehsPerHour="385" />
    <flow id="grid_r_E10_E9_midday" type="passenger" begin="7200" end="10800" from="-E10" to="E9" vehsPerHour="240" />
    <flow id="grid_r_E10_E9_afternoon" type="passenger" begin="10800" end="14400" from="-E10" to="E9" vehsPerHour="215" />
    <flow id="grid_r_E10_E9_evening_peak" type="passenger" begin="14400" end="18000" from="-E10" to="E9" vehsPerHour="408" />
    <flow id="grid_r_E10_E9_night" type="passenger" begin="18000" end="21600" from="-E10" to="E9" vehsPerHour="95" />
    <flow id="grid_r_E10_E6_early_morning" type="passenger" begin="0" end="3600" from="-E10" to="E6" via="E17 E18 E4" vehsPerHour="88" />
    <flow id="grid_r_E10_E6_morning_peak" type="passenger" begin="3600" end="7200" from="-E10" to="E6" via="E17 E18 E4" vehsPerHour="280" />
    <flow id="grid_r_E10_E6_midday" type="passenger" begin="7200" end="10800" from="-E10" to="E6" via="E17 E18 E4" vehsPerHour="175" />
    <flow id="grid_r_E10_E6_afternoon" type="passenger" begin="10800" end="14400" from="-E10" to="E6" via="E17 E18 E4" vehsPerHour="158" />
    <flow id="grid_r_E10_E6_evening_peak" type="passenger" begin="14400" end="18000" from="-E10" to="E6" via="E17 E18 E4" vehsPerHour="298" />
    <flow id="grid_r_E10_E6_night" type="passenger" begin="18000" end="21600" from="-E10" to="E6" via="E17 E18 E4" vehsPerHour="70" />
    <flow id="grid_r_E10_E13_early_morning" type="passenger" begin="0" end="3600" from="-E10" to="E13" via="E8 E8.59" vehsPerHour="100" />
    <flow id="grid_r_E10_E13_morning_peak" type="passenger" begin="3600" end="7200" from="-E10" to="E13" via="E8 E8.59" vehsPerHour="320" />
    <flow id="grid_r_E10_E13_midday" type="passenger" begin="7200" end="10800" from="-E10" to="E13" via="E8 E8.59" vehsPerHour="200" />
    <flow id="grid_r_E10_E13_afternoon" type="passenger" begin="10800" end="14400" from="-E10" to="E13" via="E8 E8.59" vehsPerHour="180" />
    <flow id="grid_r_E10_E13_evening_peak" type="passenger" begin="14400" end="18000" from="-E10" to="E13" via="E8 E8.59" vehsPerHour="340" />
    <flow id="grid_r_E10_E13_night" type="passenger" begin="18000" end="21600" from="-E10" to="E13" via="E8 E8.59" vehsPerHour="80" />
    <flow id="grid_r_E10_E24_early_morning" type="passenger" begin="0" end="3600" from="-E10" to="E24" via="E8 E0 E0.55 E16" vehsPerHour="110" />
    <flow id="grid_r_E10_E24_morning_peak" type="passenger" begin="3600" end="7200" from="-E10" to="E24" via="E8 E0 E0.55 E16" vehsPerHour="352" />
    <flow id="grid_r_E10_E24_midday" type="passenger" begin="7200" end="10800" from="-E10" to="E24" via="E8 E0 E0.55 E16" vehsPerHour="220" />
    <flow id="grid_r_E10_E24_afternoon" type="passenger" begin="10800" end="14400" from="-E10" to="E24" via="E8 E0 E0.55 E16" vehsPerHour="198" />
    <flow id="grid_r_E10_E24_evening_peak" type="passenger" begin="14400" end="18000" from="-E10" to="E24" via="E8 E0 E0.55 E16" vehsPerHour="375" />
    <flow id="grid_r_E10_E24_night" type="passenger" begin="18000" end="21600" from="-E10" to="E24" via="E8 E0 E0.55 E16" vehsPerHour="88" />
    <flow id="grid_r_E10_E21_early_morning" type="passenger" begin="0" end="3600" from="-E10" to="E21" via="E17 E19 E20" vehsPerHour="115" />
    <flow id="grid_r_E10_E21_morning_peak" type="passenger" begin="3600" end="7200" from="-E10" to="E21" via="E17 E19 E20" vehsPerHour="368" />
    <flow id="grid_r_E10_E21_midday" type="passenger" begin="7200" end="10800" from="-E10" to="E21" via="E17 E19 E20" vehsPerHour="230" />
    <flow id="grid_r_E10_E21_afternoon" type="passenger" begin="10800" end="14400" from="-E10" to="E21" via="E17 E19 E20" vehsPerHour="208" />
    <flow id="grid_r_E10_E21_evening_peak" type="passenger" begin="14400" end="18000" from="-E10" to="E21" via="E17 E19 E20" vehsPerHour="390" />
    <flow id="grid_r_E10_E21_night" type="passenger" begin="18000" end="21600" from="-E10" to="E21" via="E17 E19 E20" vehsPerHour="92" />
    <flow id="grid_r_E6_E21_early_morning" type="passenger" begin="0" end="3600" from="-E6" to="E21" via="-E5 -E0.55 E20" vehsPerHour="130" />
    <flow id="grid_r_E6_E21_morning_peak" type="passenger" begin="3600" end="7200" from="-E6" to="E21" via="-E5 -E0.55 E20" vehsPerHour="415" />
    <flow id="grid_r_E6_E21_midday" type="passenger" begin="7200" end="10800" from="-E6" to="E21" via="-E5 -E0.55 E20" vehsPerHour="260" />
    <flow id="grid_r_E6_E21_afternoon" type="passenger" begin="10800" end="14400" from="-E6" to="E21" via="-E5 -E0.55 E20" vehsPerHour="235" />
    <flow id="grid_r_E6_E21_evening_peak" type="passenger" begin="14400" end="18000" from="-E6" to="E21" via="-E5 -E0.55 E20" vehsPerHour="442" />
    <flow id="grid_r_E6_E21_night" type="passenger" begin="18000" end="21600" from="-E6" to="E21" via="-E5 -E0.55 E20" vehsPerHour="105" />
    <flow id="grid_r_E6_E10_early_morning" type="passenger" begin="0" end="3600" from="-E6" to="E10" via="-E4 -E18 -E17" vehsPerHour="90" />
    <flow id="grid_r_E6_E10_morning_peak" type="passenger" begin="3600" end="7200" from="-E6" to="E10" via="-E4 -E18 -E17" vehsPerHour="288" />
    <flow id="grid_r_E6_E10_midday" type="passenger" begin="7200" end="10800" from="-E6" to="E10" via="-E4 -E18 -E17" vehsPerHour="180" />
    <flow id="grid_r_E6_E10_afternoon" type="passenger" begin="10800" end="14400" from="-E6" to="E10" via="-E4 -E18 -E17" vehsPerHour="162" />
    <flow id="grid_r_E6_E10_evening_peak" type="passenger" begin="14400" end="18000" from="-E6" to="E10" via="-E4 -E18 -E17" vehsPerHour="305" />
    <flow id="grid_r_E6_E10_night" type="passenger" begin="18000" end="21600" from="-E6" to="E10" via="-E4 -E18 -E17" vehsPerHour="72" />
    <flow id="grid_r_E6_E11_early_morning" type="passenger" begin="0" end="3600" from="-E6" to="E11" via="-E5 -E0.55 -E0" vehsPerHour="120" />
    <flow id="grid_r_E6_E11_morning_peak" type="passenger" begin="3600" end="7200" from="-E6" to="E11" via="-E5 -E0.55 -E0" vehsPerHour="385" />
    <flow id="grid_r_E6_E11_midday" type="passenger" begin="7200" end="10800" from="-E6" to="E11" via="-E5 -E0.55 -E0" vehsPerHour="240" />
    <flow id="grid_r_E6_E11_afternoon" type="passenger" begin="10800" end="14400" from="-E6" to="E11" via="-E5 -E0.55 -E0" vehsPerHour="215" />
    <flow id="grid_r_E6_E11_evening_peak" type="passenger" begin="14400" end="18000" from="-E6" to="E11" via="-E5 -E0.55 -E0" vehsPerHour="408" />
    <flow id="grid_r_E6_E11_night" type="passenger" begin="18000" end="21600" from="-E6" to="E11" via="-E5 -E0.55 -E0" vehsPerHour="95" />
    <flow id="grid_r_E6_E15_early_morning" type="passenger" begin="0" end="3600" from="-E6" to="E15" via="-E4" vehsPerHour="108" />
    <flow id="grid_r_E6_E15_morning_peak" type="passenger" begin="3600" end="7200" from="-E6" to="E15" via="-E4" vehsPerHour="345" />
    <flow id="grid_r_E6_E15_midday" type="passenger" begin="7200" end="10800" from="-E6" to="E15" via="-E4" vehsPerHour="215" />
    <flow id="grid_r_E6_E15_afternoon" type="passenger" begin="10800" end="14400" from="-E6" to="E15" via="-E4" vehsPerHour="192" />
    <flow id="grid_r_E6_E15_evening_peak" type="passenger" begin="14400" end="18000" from="-E6" to="E15" via="-E4" vehsPerHour="365" />
    <flow id="grid_r_E6_E15_night" type="passenger" begin="18000" end="21600" from="-E6" to="E15" via="-E4" vehsPerHour="85" />
    <flow id="grid_b_1_early_morning" type="bus" begin="0.00" from="-E15" to="E24" via="E4 -E5 E16" end="3600.00" vehsPerHour="20" />
    <flow id="grid_b_2_early_morning" type="bus" begin="0.00" from="-E15" to="E21" via="-E18 E19 E20" end="3600.00" vehsPerHour="20" />
    <flow id="grid_f_0_early_morning" type="passenger" begin="0.00" from="-E15" to="E24" via="E4 -E5 E16" end="3600.00" vehsPerHour="348" />
    <flow id="grid_f_16_early_morning" type="passenger" begin="0.00" from="-E11" to="E21" end="3600.00" vehsPerHour="222" />
    <flow id="grid_f_17_early_morning" type="passenger" begin="0.00" from="-E12" to="E15" end="3600.00" vehsPerHour="237" />
    <flow id="grid_f_19_early_morning" type="passenger" begin="0.00" from="-E13" to="E9" end="3600.00" vehsPerHour="200" />
    <flow id="grid_f_1_early_morning" type="passenger" begin="0.00" from="-E15" to="E21" via="-E18 E19 E20" end="3600.00" vehsPerHour="328" />
    <flow id="grid_f_20_early_morning" type="passenger" begin="0.00" from="-E13" to="E15" end="3600.00" vehsPerHour="258" />
    <flow id="grid_f_21_early_morning" type="passenger" begin="0.00" from="-E24" to="E12" via="-E23" end="3600.00" vehsPerHour="230" />
    <flow id="grid_f_22_early_morning" type="passenger" begin="0.00" from="-E24" to="E15" end="3600.00" vehsPerHour="248" />
    <flow id="grid_f_23_early_morning" type="passenger" begin="0.00" from="-E21" to="E15" end="3600.00" vehsPerHour="267" />
    <flow id="grid_f_24_early_morning" type="passenger" begin="0.00" from="-E21" to="E10" end="3600.00" vehsPerHour="218" />
    <flow id="grid_f_2_early_morning" type="passenger" begin="0.00" from="-E15" to="E10" via="-E18 -E17" end="3600.00" vehsPerHour="307" />
    <flow id="grid_t_1_early_morning" type="truck" begin="0.00" from="-E15" to="E10" via="-E18 -E17" end="3600.00" vehsPerHour="18" />
    <flow id="grid_b_1_morning_peak" type="bus" begin="3600.00" from="-E15" to="E24" via="E4 -E5 E16" end="7200.00" vehsPerHour="68" />
    <flow id="grid_b_2_morning_peak" type="bus" begin="3600.00" from="-E15" to="E21" via="-E18 E19 E20" end="7200.00" vehsPerHour="68" />
    <flow id="grid_f_0_morning_peak" type="passenger" begin="3600.00" from="-E15" to="E24" via="E4 -E5 E16" end="7200.00" vehsPerHour="1110" />
    <flow id="grid_f_16_morning_peak" type="passenger" begin="3600.00" from="-E11" to="E21" end="7200.00" vehsPerHour="710" />
    <flow id="grid_f_17_morning_peak" type="passenger" begin="3600.00" from="-E12" to="E15" end="7200.00" vehsPerHour="763" />
    <flow id="grid_f_19_morning_peak" type="passenger" begin="3600.00" from="-E13" to="E9" end="7200.00" vehsPerHour="642" />
    <flow id="grid_f_1_morning_peak" type="passenger" begin="3600.00" from="-E15" to="E21" via="-E18 E19 E20" end="7200.00" vehsPerHour="1050" />
    <flow id="grid_f_20_morning_peak" type="passenger" begin="3600.00" from="-E13" to="E15" end="7200.00" vehsPerHour="823" />
    <flow id="grid_f_21_morning_peak" type="passenger" begin="3600.00" from="-E24" to="E12" via="-E23" end="7200.00" vehsPerHour="735" />
    <flow id="grid_f_22_morning_peak" type="passenger" begin="3600.00" from="-E24" to="E15" end="7200.00" vehsPerHour="795" />
    <flow id="grid_f_23_morning_peak" type="passenger" begin="3600.00" from="-E21" to="E15" end="7200.00" vehsPerHour="860" />
    <flow id="grid_f_24_morning_peak" type="passenger" begin="3600.00" from="-E21" to="E10" end="7200.00" vehsPerHour="700" />
    <flow id="grid_f_2_morning_peak" type="passenger" begin="3600.00" from="-E15" to="E10" via="-E18 -E17" end="7200.00" vehsPerHour="983" />
    <flow id="grid_t_1_morning_peak" type="truck" begin="3600.00" from="-E15" to="E10" via="-E18 -E17" end="7200.00" vehsPerHour="58" />
    <flow id="grid_b_1_midday" type="bus" begin="7200.00" from="-E15" to="E24" via="E4 -E5 E16" end="10800.00" vehsPerHour="42" />
    <flow id="grid_b_2_midday" type="bus" begin="7200.00" from="-E15" to="E21" via="-E18 E19 E20" end="10800.00" vehsPerHour="42" />
    <flow id="grid_f_0_midday" type="passenger" begin="7200.00" from="-E15" to="E24" via="E4 -E5 E16" end="10800.00" vehsPerHour="695" />
    <flow id="grid_f_16_midday" type="passenger" begin="7200.00" from="-E11" to="E21" end="10800.00" vehsPerHour="445" />
    <flow id="grid_f_17_midday" type="passenger" begin="7200.00" from="-E12" to="E15" end="10800.00" vehsPerHour="477" />
    <flow id="grid_f_19_midday" type="passenger" begin="7200.00" from="-E13" to="E9" end="10800.00" vehsPerHour="402" />
    <flow id="grid_f_1_midday" type="passenger" begin="7200.00" from="-E15" to="E21" via="-E18 E19 E20" end="10800.00" vehsPerHour="657" />
    <flow id="grid_f_20_midday" type="passenger" begin="7200.00" from="-E13" to="E15" end="10800.00" vehsPerHour="515" />
    <flow id="grid_f_21_midday" type="passenger" begin="7200.00" from="-E24" to="E12" via="-E23" end="10800.00" vehsPerHour="460" />
    <flow id="grid_f_22_midday" type="passenger" begin="7200.00" from="-E24" to="E15" end="10800.00" vehsPerHour="498" />
    <flow id="grid_f_23_midday" type="passenger" begin="7200.00" from="-E21" to="E15" end="10800.00" vehsPerHour="538" />
    <flow id="grid_f_24_midday" type="passenger" begin="7200.00" from="-E21" to="E10" end="10800.00" vehsPerHour="438" />
    <flow id="grid_f_2_midday" type="passenger" begin="7200.00" from="-E15" to="E10" via="-E18 -E17" end="10800.00" vehsPerHour="615" />
    <flow id="grid_t_1_midday" type="truck" begin="7200.00" from="-E15" to="E10" via="-E18 -E17" end="10800.00" vehsPerHour="35" />
    <flow id="grid_b_1_afternoon" type="bus" begin="10800.00" from="-E15" to="E24" via="E4 -E5 E16" end="14400.00" vehsPerHour="38" />
    <flow id="grid_b_2_afternoon" type="bus" begin="10800.00" from="-E15" to="E21" via="-E18 E19 E20" end="14400.00" vehsPerHour="38" />
    <flow id="grid_f_0_afternoon" type="passenger" begin="10800.00" from="-E15" to="E24" via="E4 -E5 E16" end="14400.00" vehsPerHour="625" />
    <flow id="grid_f_16_afternoon" type="passenger" begin="10800.00" from="-E11" to="E21" end="14400.00" vehsPerHour="400" />
    <flow id="grid_f_17_afternoon" type="passenger" begin="10800.00" from="-E12" to="E15" end="14400.00" vehsPerHour="428" />
    <flow id="grid_f_19_afternoon" type="passenger" begin="10800.00" from="-E13" to="E9" end="14400.00" vehsPerHour="360" />
    <flow id="grid_f_1_afternoon" type="passenger" begin="10800.00" from="-E15" to="E21" via="-E18 E19 E20" end="14400.00" vehsPerHour="590" />
    <flow id="grid_f_20_afternoon" type="passenger" begin="10800.00" from="-E13" to="E15" end="14400.00" vehsPerHour="462" />
    <flow id="grid_f_21_afternoon" type="passenger" begin="10800.00" from="-E24" to="E12" via="-E23" end="14400.00" vehsPerHour="412" />
    <flow id="grid_f_22_afternoon" type="passenger" begin="10800.00" from="-E24" to="E15" end="14400.00" vehsPerHour="448" />
    <flow id="grid_f_23_afternoon" type="passenger" begin="10800.00" from="-E21" to="E15" end="14400.00" vehsPerHour="483" />
    <flow id="grid_f_24_afternoon" type="passenger" begin="10800.00" from="-E21" to="E10" end="14400.00" vehsPerHour="392" />
    <flow id="grid_f_2_afternoon" type="passenger" begin="10800.00" from="-E15" to="E10" via="-E18 -E17" end="14400.00" vehsPerHour="552" />
    <flow id="grid_t_1_afternoon" type="truck" begin="10800.00" from="-E15" to="E10" via="-E18 -E17" end="14400.00" vehsPerHour="30" />
    <flow id="grid_b_1_evening_peak" type="bus" begin="14400.00" from="-E15" to="E24" via="E4 -E5 E16" end="18000.00" vehsPerHour="70" />
    <flow id="grid_b_2_evening_peak" type="bus" begin="14400.00" from="-E15" to="E21" via="-E18 E19 E20" end="18000.00" vehsPerHour="70" />
    <flow id="grid_f_0_evening_peak" type="passenger" begin="14400.00" from="-E15" to="E24" via="E4 -E5 E16" end="18000.00" vehsPerHour="1180" />
    <flow id="grid_f_16_evening_peak" type="passenger" begin="14400.00" from="-E11" to="E21" end="18000.00" vehsPerHour="755" />
    <flow id="grid_f_17_evening_peak" type="passenger" begin="14400.00" from="-E12" to="E15" end="18000.00" vehsPerHour="810" />
    <flow id="grid_f_19_evening_peak" type="passenger" begin="14400.00" from="-E13" to="E9" end="18000.00" vehsPerHour="682" />
    <flow id="grid_f_1_evening_peak" type="passenger" begin="14400.00" from="-E15" to="E21" via="-E18 E19 E20" end="18000.00" vehsPerHour="1118" />
    <flow id="grid_f_20_evening_peak" type="passenger" begin="14400.00" from="-E13" to="E15" end="18000.00" vehsPerHour="875" />
    <flow id="grid_f_21_evening_peak" type="passenger" begin="14400.00" from="-E24" to="E12" via="-E23" end="18000.00" vehsPerHour="780" />
    <flow id="grid_f_22_evening_peak" type="passenger" begin="14400.00" from="-E24" to="E15" end="18000.00" vehsPerHour="845" />
    <flow id="grid_f_23_evening_peak" type="passenger" begin="14400.00" from="-E21" to="E15" end="18000.00" vehsPerHour="913" />
    <flow id="grid_f_24_evening_peak" type="passenger" begin="14400.00" from="-E21" to="E10" end="18000.00" vehsPerHour="743" />
    <flow id="grid_f_2_evening_peak" type="passenger" begin="14400.00" from="-E15" to="E10" via="-E18 -E17" end="18000.00" vehsPerHour="1045" />
    <flow id="grid_t_1_evening_peak" type="truck" begin="14400.00" from="-E15" to="E10" via="-E18 -E17" end="18000.00" vehsPerHour="60" />
    <flow id="grid_b_1_night" type="bus" begin="18000.00" from="-E15" to="E24" via="E4 -E5 E16" end="21600.00" vehsPerHour="15" />
    <flow id="grid_b_2_night" type="bus" begin="18000.00" from="-E15" to="E21" via="-E18 E19 E20" end="21600.00" vehsPerHour="15" />
    <flow id="grid_f_0_night" type="passenger" begin="18000.00" from="-E15" to="E24" via="E4 -E5 E16" end="21600.00" vehsPerHour="278" />
    <flow id="grid_f_16_night" type="passenger" begin="18000.00" from="-E11" to="E21" end="21600.00" vehsPerHour="178" />
    <flow id="grid_f_17_night" type="passenger" begin="18000.00" from="-E12" to="E15" end="21600.00" vehsPerHour="190" />
    <flow id="grid_f_19_night" type="passenger" begin="18000.00" from="-E13" to="E9" end="21600.00" vehsPerHour="160" />
    <flow id="grid_f_1_night" type="passenger" begin="18000.00" from="-E15" to="E21" via="-E18 E19 E20" end="21600.00" vehsPerHour="262" />
    <flow id="grid_f_20_night" type="passenger" begin="18000.00" from="-E13" to="E15" end="21600.00" vehsPerHour="205" />
    <flow id="grid_f_21_night" type="passenger" begin="18000.00" from="-E24" to="E12" via="-E23" end="21600.00" vehsPerHour="182" />
    <flow id="grid_f_22_night" type="passenger" begin="18000.00" from="-E24" to="E15" end="21600.00" vehsPerHour="198" />
    <flow id="grid_f_23_night" type="passenger" begin="18000.00" from="-E21" to="E15" end="21600.00" vehsPerHour="215" />
    <flow id="grid_f_24_night" type="passenger" begin="18000.00" from="-E21" to="E10" end="21600.00" vehsPerHour="175" />
    <flow id="grid_f_2_night" type="passenger" begin="18000.00" from="-E15" to="E10" via="-E18 -E17" end="21600.00" vehsPerHour="245" />
    <flow id="grid_t_1_night" type="truck" begin="18000.00" from="-E15" to="E10" via="-E18 -E17" end="21600.00" vehsPerHour="12" />
</routes>