<?xml version="1.0" encoding="UTF-8"?>

<!-- generated on 2025-12-13 21:56:06 by Eclipse SUMO netedit Version 1.24.0
-->

<routes xmlns:xsi="http://www.w3.org/2001/XMLSchema-instance" xsi:noNamespaceSchemaLocation="http://sumo.dlr.de/xsd/routes_file.xsd">
    <!-- VTypes -->
    <vType id="car" length="5.00" maxSpeed="50.00" accel="2.6" decel="4.5" sigma="0.5"/>
    <!-- Vehicles, persons and containers (sorted by depart) -->
    <trip id="t_0" depart="0.00" from="-E15" to="E24"/>
    <trip id="t_1" depart="0.00" from="-E15" to="E13"/>
    <trip id="t_2" depart="0.00" from="-E15" to="E10"/>
    <trip id="t_3" depart="0.00" from="-E15" to="E6"/>
    <trip id="t_4" depart="0.00" from="-E15" to="E11"/>
    <flow id="f_0_early_morning" type="car" begin="0.00" from="-E9" to="E13" end="7200.00" vehsPerHour="60"/>
    <flow id="f_10_early_morning" type="car" begin="0.00" from="-E10" to="E15" end="7200.00" vehsPerHour="108.01"/>
    <flow id="f_11_early_morning" type="car" begin="0.00" from="-E11" to="E6" end="7200.00" vehsPerHour="54"/>
    <flow id="f_12_early_morning" type="car" begin="0.00" from="-E11" to="E9" end="7200.00" vehsPerHour="48"/>
    <flow id="f_13_early_morning" type="car" begin="0.00" from="-E11" to="E13" end="7200.00" vehsPerHour="42"/>
    <flow id="f_14_early_morning" type="car" begin="0.00" from="-E11" to="E15" end="7200.00" vehsPerHour="60"/>
    <flow id="f_15_early_morning" type="car" begin="0.00" from="-E11" to="E24" end="7200.00" vehsPerHour="90"/>
    <flow id="f_16_early_morning" type="car" begin="0.00" from="-E12" to="E9" end="7200.00" vehsPerHour="48"/>
    <flow id="f_17_early_morning" type="car" begin="0.00" from="-E12" to="E6" end="7200.00" vehsPerHour="54"/>
    <flow id="f_18_early_morning" type="car" begin="0.00" from="-E12" to="E15" end="7200.00" vehsPerHour="60"/>
    <flow id="f_19_early_morning" type="car" begin="0.00" from="-E12" to="E24" end="7200.00" vehsPerHour="65.99"/>
    <flow id="f_1_early_morning" type="car" begin="0.00" from="-E9" to="E6" end="7200.00" vehsPerHour="60"/>
    <flow id="f_20_early_morning" type="car" begin="0.00" from="-E13" to="E24" end="7200.00" vehsPerHour="72"/>
    <flow id="f_21_early_morning" type="car" begin="0.00" from="-E13" to="E6" end="7200.00" vehsPerHour="60"/>
    <flow id="f_22_early_morning" type="car" begin="0.00" from="-E13" to="E15" end="7200.00" vehsPerHour="65.99"/>
    <flow id="f_23_early_morning" type="car" begin="0.00" from="-E13" to="E10" end="7200.00" vehsPerHour="54"/>
    <flow id="f_24_early_morning" type="car" begin="0.00" from="-E21" to="E6" end="7200.00" vehsPerHour="60"/>
    <flow id="f_25_early_morning" type="car" begin="0.00" from="-E21" to="E15" end="7200.00" vehsPerHour="108.01"/>
    <flow id="f_26_early_morning" type="car" begin="0.00" from="-E21" to="E11" end="7200.00" vehsPerHour="54"/>
    <flow id="f_27_early_morning" type="car" begin="0.00" from="-E21" to="E12" end="7200.00" vehsPerHour="48"/>
    <flow id="f_28_early_morning" type="car" begin="0.00" from="-E24" to="E11" end="7200.00" vehsPerHour="60"/>
    <flow id="f_29_early_morning" type="car" begin="0.00" from="-E24" to="E15" end="7200.00" vehsPerHour="108.01"/>
    <flow id="f_2_early_morning" type="car" begin="0.00" from="-E9" to="E24" end="7200.00" vehsPerHour="72"/>
    <flow id="f_30_early_morning" type="car" begin="0.00" from="-E24" to="E13" end="7200.00" vehsPerHour="54"/>
    <flow id="f_31_early_morning" type="car" begin="0.00" from="-E24" to="E6" end="7200.00" vehsPerHour="60"/>
    <flow id="f_32_early_morning" type="car" begin="0.00" from="-E6" to="E24" end="7200.00" vehsPerHour="90"/>
    <flow id="f_33_early_morning" type="car" begin="0.00" from="-E6" to="E9" end="7200.00" vehsPerHour="48"/>
    <flow id="f_34_early_morning" type="car" begin="0.00" from="-E6" to="E21" end="7200.00" vehsPerHour="83.99"/>
    <flow id="f_35_early_morning" type="car" begin="0.00" from="-E6" to="E13" end="7200.00" vehsPerHour="54"/>
    <flow id="f_36_early_morning" type="car" begin="0.00" from="-E6" to="E12" end="7200.00" vehsPerHour="48"/>
    <flow id="f_37_early_morning" type="car" begin="0.00" from="-E6" to="E11" end="7200.00" vehsPerHour="54"/>
    <flow id="f_38_early_morning" type="car" begin="0.00" from="-E6" to="E15" end="7200.00" vehsPerHour="96"/>
    <flow id="f_3_early_morning" type="car" begin="0.00" from="-E9" to="E10" end="7200.00" vehsPerHour="48"/>
    <flow id="f_4_early_morning" type="car" begin="0.00" from="-E9" to="E21" end="7200.00" vehsPerHour="54"/>
    <flow id="f_5_early_morning" type="car" begin="0.00" from="-E10" to="E6" end="7200.00" vehsPerHour="60"/>
    <flow id="f_6_early_morning" type="car" begin="0.00" from="-E10" to="E21" end="7200.00" vehsPerHour="90"/>
    <flow id="f_7_early_morning" type="car" begin="0.00" from="-E10" to="E15" end="7200.00" vehsPerHour="108.01"/>
    <flow id="f_8_early_morning" type="car" begin="0.00" from="-E10" to="E24" end="7200.00" vehsPerHour="72"/>
    <flow id="f_9_early_morning" type="car" begin="0.00" from="-E10" to="E13" end="7200.00" vehsPerHour="48"/>
    <flow id="f_0_morning_peak" type="car" begin="7200.00" from="-E9" to="E13" end="10800.00" vehsPerHour="120"/>
    <flow id="f_10_morning_peak" type="car" begin="7200.00" from="-E10" to="E15" end="10800.00" vehsPerHour="215.96"/>
    <flow id="f_11_morning_peak" type="car" begin="7200.00" from="-E11" to="E6" end="10800.00" vehsPerHour="108.01"/>
    <flow id="f_12_morning_peak" type="car" begin="7200.00" from="-E11" to="E9" end="10800.00" vehsPerHour="96"/>
    <flow id="f_13_morning_peak" type="car" begin="7200.00" from="-E11" to="E13" end="10800.00" vehsPerHour="83.99"/>
    <flow id="f_14_morning_peak" type="car" begin="7200.00" from="-E11" to="E15" end="10800.00" vehsPerHour="120"/>
    <flow id="f_15_morning_peak" type="car" begin="7200.00" from="-E11" to="E24" end="10800.00" vehsPerHour="180"/>
    <flow id="f_16_morning_peak" type="car" begin="7200.00" from="-E12" to="E9" end="10800.00" vehsPerHour="96"/>
    <flow id="f_17_morning_peak" type="car" begin="7200.00" from="-E12" to="E6" end="10800.00" vehsPerHour="108.01"/>
    <flow id="f_18_morning_peak" type="car" begin="7200.00" from="-E12" to="E15" end="10800.00" vehsPerHour="120"/>
    <flow id="f_19_morning_peak" type="car" begin="7200.00" from="-E12" to="E24" end="10800.00" vehsPerHour="132.01"/>
    <flow id="f_1_morning_peak" type="car" begin="7200.00" from="-E9" to="E6" end="10800.00" vehsPerHour="120"/>
    <flow id="f_20_morning_peak" type="car" begin="7200.00" from="-E13" to="E24" end="10800.00" vehsPerHour="144"/>
    <flow id="f_21_morning_peak" type="car" begin="7200.00" from="-E13" to="E6" end="10800.00" vehsPerHour="120"/>
    <flow id="f_22_morning_peak" type="car" begin="7200.00" from="-E13" to="E15" end="10800.00" vehsPerHour="132.01"/>
    <flow id="f_23_morning_peak" type="car" begin="7200.00" from="-E13" to="E10" end="10800.00" vehsPerHour="108.01"/>
    <flow id="f_24_morning_peak" type="car" begin="7200.00" from="-E21" to="E6" end="10800.00" vehsPerHour="120"/>
    <flow id="f_25_morning_peak" type="car" begin="7200.00" from="-E21" to="E15" end="10800.00" vehsPerHour="215.96"/>
    <flow id="f_26_morning_peak" type="car" begin="7200.00" from="-E21" to="E11" end="10800.00" vehsPerHour="108.01"/>
    <flow id="f_27_morning_peak" type="car" begin="7200.00" from="-E21" to="E12" end="10800.00" vehsPerHour="96"/>
    <flow id="f_28_morning_peak" type="car" begin="7200.00" from="-E24" to="E11" end="10800.00" vehsPerHour="120"/>
    <flow id="f_29_morning_peak" type="car" begin="7200.00" from="-E24" to="E15" end="10800.00" vehsPerHour="215.96"/>
    <flow id="f_2_morning_peak" type="car" begin="7200.00" from="-E9" to="E24" end="10800.00" vehsPerHour="144"/>
    <flow id="f_30_morning_peak" type="car" begin="7200.00" from="-E24" to="E13" end="10800.00" vehsPerHour="108.01"/>
    <flow id="f_31_morning_peak" type="car" begin="7200.00" from="-E24" to="E6" end="10800.00" vehsPerHour="120"/>
    <flow id="f_32_morning_peak" type="car" begin="7200.00" from="-E6" to="E24" end="10800.00" vehsPerHour="180"/>
    <flow id="f_33_morning_peak" type="car" begin="7200.00" from="-E6" to="E9" end="10800.00" vehsPerHour="96"/>
    <flow id="f_34_morning_peak" type="car" begin="7200.00" from="-E6" to="E21" end="10800.00" vehsPerHour="167.99"/>
    <flow id="f_35_morning_peak" type="car" begin="7200.00" from="-E6" to="E13" end="10800.00" vehsPerHour="108.01"/>
    <flow id="f_36_morning_peak" type="car" begin="7200.00" from="-E6" to="E12" end="10800.00" vehsPerHour="96"/>
    <flow id="f_37_morning_peak" type="car" begin="7200.00" from="-E6" to="E11" end="10800.00" vehsPerHour="108.01"/>
    <flow id="f_38_morning_peak" type="car" begin="7200.00" from="-E6" to="E15" end="10800.00" vehsPerHour="192"/>
    <flow id="f_3_morning_peak" type="car" begin="7200.00" from="-E9" to="E10" end="10800.00" vehsPerHour="96"/>
    <flow id="f_4_morning_peak" type="car" begin="7200.00" from="-E9" to="E21" end="10800.00" vehsPerHour="108.01"/>
    <flow id="f_5_morning_peak" type="car" begin="7200.00" from="-E10" to="E6" end="10800.00" vehsPerHour="120"/>
    <flow id="f_6_morning_peak" type="car" begin="7200.00" from="-E10" to="E21" end="10800.00" vehsPerHour="180"/>
    <flow id="f_7_morning_peak" type="car" begin="7200.00" from="-E10" to="E15" end="10800.00" vehsPerHour="215.96"/>
    <flow id="f_8_morning_peak" type="car" begin="7200.00" from="-E10" to="E24" end="10800.00" vehsPerHour="144"/>
    <flow id="f_9_morning_peak" type="car" begin="7200.00" from="-E10" to="E13" end="10800.00" vehsPerHour="96"/>
    <flow id="f_0_late_morning" type="car" begin="10800.00" from="-E9" to="E13" end="21600.00" vehsPerHour="64.99"/>
    <flow id="f_10_late_morning" type="car" begin="10800.00" from="-E10" to="E15" end="21600.00" vehsPerHour="117"/>
    <flow id="f_11_late_morning" type="car" begin="10800.00" from="-E11" to="E6" end="21600.00" vehsPerHour="58"/>
    <flow id="f_12_late_morning" type="car" begin="10800.00" from="-E11" to="E9" end="21600.00" vehsPerHour="52"/>
    <flow id="f_13_late_morning" type="car" begin="10800.00" from="-E11" to="E13" end="21600.00" vehsPerHour="46"/>
    <flow id="f_14_late_morning" type="car" begin="10800.00" from="-E11" to="E15" end="21600.00" vehsPerHour="64.99"/>
    <flow id="f_15_late_morning" type="car" begin="10800.00" from="-E11" to="E24" end="21600.00" vehsPerHour="97.99"/>
    <flow id="f_16_late_morning" type="car" begin="10800.00" from="-E12" to="E9" end="21600.00" vehsPerHour="52"/>
    <flow id="f_17_late_morning" type="car" begin="10800.00" from="-E12" to="E6" end="21600.00" vehsPerHour="58"/>
    <flow id="f_18_late_morning" type="car" begin="10800.00" from="-E12" to="E15" end="21600.00" vehsPerHour="64.99"/>
    <flow id="f_19_late_morning" type="car" begin="10800.00" from="-E12" to="E24" end="21600.00" vehsPerHour="72"/>
    <flow id="f_1_late_morning" type="car" begin="10800.00" from="-E9" to="E6" end="21600.00" vehsPerHour="64.99"/>
    <flow id="f_20_late_morning" type="car" begin="10800.00" from="-E13" to="E24" end="21600.00" vehsPerHour="78.01"/>
    <flow id="f_21_late_morning" type="car" begin="10800.00" from="-E13" to="E6" end="21600.00" vehsPerHour="64.99"/>
    <flow id="f_22_late_morning" type="car" begin="10800.00" from="-E13" to="E15" end="21600.00" vehsPerHour="72"/>
    <flow id="f_23_late_morning" type="car" begin="10800.00" from="-E13" to="E10" end="21600.00" vehsPerHour="58"/>
    <flow id="f_24_late_morning" type="car" begin="10800.00" from="-E21" to="E6" end="21600.00" vehsPerHour="64.99"/>
    <flow id="f_25_late_morning" type="car" begin="10800.00" from="-E21" to="E15" end="21600.00" vehsPerHour="117"/>
    <flow id="f_26_late_morning" type="car" begin="10800.00" from="-E21" to="E11" end="21600.00" vehsPerHour="58"/>
    <flow id="f_27_late_morning" type="car" begin="10800.00" from="-E21" to="E12" end="21600.00" vehsPerHour="52"/>
    <flow id="f_28_late_morning" type="car" begin="10800.00" from="-E24" to="E11" end="21600.00" vehsPerHour="64.99"/>
    <flow id="f_29_late_morning" type="car" begin="10800.00" from="-E24" to="E15" end="21600.00" vehsPerHour="117"/>
    <flow id="f_2_late_morning" type="car" begin="10800.00" from="-E9" to="E24" end="21600.00" vehsPerHour="78.01"/>
    <flow id="f_30_late_morning" type="car" begin="10800.00" from="-E24" to="E13" end="21600.00" vehsPerHour="58"/>
    <flow id="f_31_late_morning" type="car" begin="10800.00" from="-E24" to="E6" end="21600.00" vehsPerHour="64.99"/>
    <flow id="f_32_late_morning" type="car" begin="10800.00" from="-E6" to="E24" end="21600.00" vehsPerHour="97.99"/>
    <flow id="f_33_late_morning" type="car" begin="10800.00" from="-E6" to="E9" end="21600.00" vehsPerHour="52"/>
    <flow id="f_34_late_morning" type="car" begin="10800.00" from="-E6" to="E21" end="21600.00" vehsPerHour="91"/>
    <flow id="f_35_late_morning" type="car" begin="10800.00" from="-E6" to="E13" end="21600.00" vehsPerHour="58"/>
    <flow id="f_36_late_morning" type="car" begin="10800.00" from="-E6" to="E12" end="21600.00" vehsPerHour="52"/>
    <flow id="f_37_late_morning" type="car" begin="10800.00" from="-E6" to="E11" end="21600.00" vehsPerHour="58"/>
    <flow id="f_38_late_morning" type="car" begin="10800.00" from="-E6" to="E15" end="21600.00" vehsPerHour="103.99"/>
    <flow id="f_3_late_morning" type="car" begin="10800.00" from="-E9" to="E10" end="21600.00" vehsPerHour="52"/>
    <flow id="f_4_late_morning" type="car" begin="10800.00" from="-E9" to="E21" end="21600.00" vehsPerHour="58"/>
    <flow id="f_5_late_morning" type="car" begin="10800.00" from="-E10" to="E6" end="21600.00" vehsPerHour="64.99"/>
    <flow id="f_6_late_morning" type="car" begin="10800.00" from="-E10" to="E21" end="21600.00" vehsPerHour="97.99"/>
    <flow id="f_7_late_morning" type="car" begin="10800.00" from="-E10" to="E15" end="21600.00" vehsPerHour="117"/>
    <flow id="f_8_late_morning" type="car" begin="10800.00" from="-E10" to="E24" end="21600.00" vehsPerHour="78.01"/>
    <flow id="f_9_late_morning" type="car" begin="10800.00" from="-E10" to="E13" end="21600.00" vehsPerHour="52"/>
    <flow id="f_0_lunch" type="car" begin="21600.00" from="-E9" to="E13" end="28800.00" vehsPerHour="55"/>
    <flow id="f_10_lunch" type="car" begin="21600.00" from="-E10" to="E15" end="28800.00" vehsPerHour="99.01"/>
    <flow id="f_11_lunch" type="car" begin="21600.00" from="-E11" to="E6" end="28800.00" vehsPerHour="50"/>
    <flow id="f_12_lunch" type="car" begin="21600.00" from="-E11" to="E9" end="28800.00" vehsPerHour="44"/>
    <flow id="f_13_lunch" type="car" begin="21600.00" from="-E11" to="E13" end="28800.00" vehsPerHour="38"/>
    <flow id="f_14_lunch" type="car" begin="21600.00" from="-E11" to="E15" end="28800.00" vehsPerHour="55"/>
    <flow id="f_15_lunch" type="car" begin="21600.00" from="-E11" to="E24" end="28800.00" vehsPerHour="82"/>
    <flow id="f_16_lunch" type="car" begin="21600.00" from="-E12" to="E9" end="28800.00" vehsPerHour="44"/>
    <flow id="f_17_lunch" type="car" begin="21600.00" from="-E12" to="E6" end="28800.00" vehsPerHour="50"/>
    <flow id="f_18_lunch" type="car" begin="21600.00" from="-E12" to="E15" end="28800.00" vehsPerHour="55"/>
    <flow id="f_19_lunch" type="car" begin="21600.00" from="-E12" to="E24" end="28800.00" vehsPerHour="61"/>
    <flow id="f_1_lunch" type="car" begin="21600.00" from="-E9" to="E6" end="28800.00" vehsPerHour="55"/>
    <flow id="f_20_lunch" type="car" begin="21600.00" from="-E13" to="E24" end="28800.00" vehsPerHour="65.99"/>
    <flow id="f_21_lunch" type="car" begin="21600.00" from="-E13" to="E6" end="28800.00" vehsPerHour="55"/>
    <flow id="f_22_lunch" type="car" begin="21600.00" from="-E13" to="E15" end="28800.00" vehsPerHour="61"/>
    <flow id="f_23_lunch" type="car" begin="21600.00" from="-E13" to="E10" end="28800.00" vehsPerHour="50"/>
    <flow id="f_24_lunch" type="car" begin="21600.00" from="-E21" to="E6" end="28800.00" vehsPerHour="55"/>
    <flow id="f_25_lunch" type="car" begin="21600.00" from="-E21" to="E15" end="28800.00" vehsPerHour="99.01"/>
    <flow id="f_26_lunch" type="car" begin="21600.00" from="-E21" to="E11" end="28800.00" vehsPerHour="50"/>
    <flow id="f_27_lunch" type="car" begin="21600.00" from="-E21" to="E12" end="28800.00" vehsPerHour="44"/>
    <flow id="f_28_lunch" type="car" begin="21600.00" from="-E24" to="E11" end="28800.00" vehsPerHour="55"/>
    <flow id="f_29_lunch" type="car" begin="21600.00" from="-E24" to="E15" end="28800.00" vehsPerHour="99.01"/>
    <flow id="f_2_lunch" type="car" begin="21600.00" from="-E9" to="E24" end="28800.00" vehsPerHour="65.99"/>
    <flow id="f_30_lunch" type="car" begin="21600.00" from="-E24" to="E13" end="28800.00" vehsPerHour="50"/>
    <flow id="f_31_lunch" type="car" begin="21600.00" from="-E24" to="E6" end="28800.00" vehsPerHour="55"/>
    <flow id="f_32_lunch" type="car" begin="21600.00" from="-E6" to="E24" end="28800.00" vehsPerHour="82"/>
    <flow id="f_33_lunch" type="car" begin="21600.00" from="-E6" to="E9" end="28800.00" vehsPerHour="44"/>
    <flow id="f_34_lunch" type="car" begin="21600.00" from="-E6" to="E21" end="28800.00" vehsPerHour="77.01"/>
    <flow id="f_35_lunch" type="car" begin="21600.00" from="-E6" to="E13" end="28800.00" vehsPerHour="50"/>
    <flow id="f_36_lunch" type="car" begin="21600.00" from="-E6" to="E12" end="28800.00" vehsPerHour="44"/>
    <flow id="f_37_lunch" type="car" begin="21600.00" from="-E6" to="E11" end="28800.00" vehsPerHour="50"/>
    <flow id="f_38_lunch" type="car" begin="21600.00" from="-E6" to="E15" end="28800.00" vehsPerHour="88"/>
    <flow id="f_3_lunch" type="car" begin="21600.00" from="-E9" to="E10" end="28800.00" vehsPerHour="44"/>
    <flow id="f_4_lunch" type="car" begin="21600.00" from="-E9" to="E21" end="28800.00" vehsPerHour="50"/>
    <flow id="f_5_lunch" type="car" begin="21600.00" from="-E10" to="E6" end="28800.00" vehsPerHour="55"/>
    <flow id="f_6_lunch" type="car" begin="21600.00" from="-E10" to="E21" end="28800.00" vehsPerHour="82"/>
    <flow id="f_7_lunch" type="car" begin="21600.00" from="-E10" to="E15" end="28800.00" vehsPerHour="99.01"/>
    <flow id="f_8_lunch" type="car" begin="21600.00" from="-E10" to="E24" end="28800.00" vehsPerHour="65.99"/>
    <flow id="f_9_lunch" type="car" begin="21600.00" from="-E10" to="E13" end="28800.00" vehsPerHour="44"/>
    <flow id="f_0_early_afternoon" type="car" begin="28800.00" from="-E9" to="E13" end="36000.00" vehsPerHour="50"/>
    <flow id="f_10_early_afternoon" type="car" begin="28800.00" from="-E10" to="E15" end="36000.00" vehsPerHour="90"/>
    <flow id="f_11_early_afternoon" type="car" begin="28800.00" from="-E11" to="E6" end="36000.00" vehsPerHour="45"/>
    <flow id="f_12_early_afternoon" type="car" begin="28800.00" from="-E11" to="E9" end="36000.00" vehsPerHour="40"/>
    <flow id="f_13_early_afternoon" type="car" begin="28800.00" from="-E11" to="E13" end="36000.00" vehsPerHour="35"/>
    <flow id="f_14_early_afternoon" type="car" begin="28800.00" from="-E11" to="E15" end="36000.00" vehsPerHour="50"/>
    <flow id="f_15_early_afternoon" type="car" begin="28800.00" from="-E11" to="E24" end="36000.00" vehsPerHour="75"/>
    <flow id="f_16_early_afternoon" type="car" begin="28800.00" from="-E12" to="E9" end="36000.00" vehsPerHour="40"/>
    <flow id="f_17_early_afternoon" type="car" begin="28800.00" from="-E12" to="E6" end="36000.00" vehsPerHour="45"/>
    <flow id="f_18_early_afternoon" type="car" begin="28800.00" from="-E12" to="E15" end="36000.00" vehsPerHour="50"/>
    <flow id="f_19_early_afternoon" type="car" begin="28800.00" from="-E12" to="E24" end="36000.00" vehsPerHour="55"/>
    <flow id="f_1_early_afternoon" type="car" begin="28800.00" from="-E9" to="E6" end="36000.00" vehsPerHour="50"/>
    <flow id="f_20_early_afternoon" type="car" begin="28800.00" from="-E13" to="E24" end="36000.00" vehsPerHour="60"/>
    <flow id="f_21_early_afternoon" type="car" begin="28800.00" from="-E13" to="E6" end="36000.00" vehsPerHour="50"/>
    <flow id="f_22_early_afternoon" type="car" begin="28800.00" from="-E13" to="E15" end="36000.00" vehsPerHour="55"/>
    <flow id="f_23_early_afternoon" type="car" begin="28800.00" from="-E13" to="E10" end="36000.00" vehsPerHour="45"/>
    <flow id="f_24_early_afternoon" type="car" begin="28800.00" from="-E21" to="E6" end="36000.00" vehsPerHour="50"/>
    <flow id="f_25_early_afternoon" type="car" begin="28800.00" from="-E21" to="E15" end="36000.00" vehsPerHour="90"/>
    <flow id="f_26_early_afternoon" type="car" begin="28800.00" from="-E21" to="E11" end="36000.00" vehsPerHour="45"/>
    <flow id="f_27_early_afternoon" type="car" begin="28800.00" from="-E21" to="E12" end="36000.00" vehsPerHour="40"/>
    <flow id="f_28_early_afternoon" type="car" begin="28800.00" from="-E24" to="E11" end="36000.00" vehsPerHour="50"/>
    <flow id="f_29_early_afternoon" type="car" begin="28800.00" from="-E24" to="E15" end="36000.00" vehsPerHour="90"/>
    <flow id="f_2_early_afternoon" type="car" begin="28800.00" from="-E9" to="E24" end="36000.00" vehsPerHour="60"/>
    <flow id="f_30_early_afternoon" type="car" begin="28800.00" from="-E24" to="E13" end="36000.00" vehsPerHour="45"/>
    <flow id="f_31_early_afternoon" type="car" begin="28800.00" from="-E24" to="E6" end="36000.00" vehsPerHour="50"/>
    <flow id="f_32_early_afternoon" type="car" begin="28800.00" from="-E6" to="E24" end="36000.00" vehsPerHour="75"/>
    <flow id="f_33_early_afternoon" type="car" begin="28800.00" from="-E6" to="E9" end="36000.00" vehsPerHour="40"/>
    <flow id="f_34_early_afternoon" type="car" begin="28800.00" from="-E6" to="E21" end="36000.00" vehsPerHour="70"/>
    <flow id="f_35_early_afternoon" type="car" begin="28800.00" from="-E6" to="E13" end="36000.00" vehsPerHour="45"/>
    <flow id="f_36_early_afternoon" type="car" begin="28800.00" from="-E6" to="E12" end="36000.00" vehsPerHour="40"/>
    <flow id="f_37_early_afternoon" type="car" begin="28800.00" from="-E6" to="E11" end="36000.00" vehsPerHour="45"/>
    <flow id="f_38_early_afternoon" type="car" begin="28800.00" from="-E6" to="E15" end="36000.00" vehsPerHour="80"/>
    <flow id="f_3_early_afternoon" type="car" begin="28800.00" from="-E9" to="E10" end="36000.00" vehsPerHour="40"/>
    <flow id="f_4_early_afternoon" type="car" begin="28800.00" from="-E9" to="E21" end="36000.00" vehsPerHour="45"/>
    <flow id="f_5_early_afternoon" type="car" begin="28800.00" from="-E10" to="E6" end="36000.00" vehsPerHour="50"/>
    <flow id="f_6_early_afternoon" type="car" begin="28800.00" from="-E10" to="E21" end="36000.00" vehsPerHour="75"/>
    <flow id="f_7_early_afternoon" type="car" begin="28800.00" from="-E10" to="E15" end="36000.00" vehsPerHour="90"/>
    <flow id="f_8_early_afternoon" type="car" begin="28800.00" from="-E10" to="E24" end="36000.00" vehsPerHour="60"/>
    <flow id="f_9_early_afternoon" type="car" begin="28800.00" from="-E10" to="E13" end="36000.00" vehsPerHour="40"/>
    <flow id="f_0_late_afternoon" type="car" begin="36000.00" from="-E9" to="E13" end="43200.00" vehsPerHour="200"/>
    <flow id="f_10_late_afternoon" type="car" begin="36000.00" from="-E10" to="E15" end="43200.00" vehsPerHour="360"/>
    <flow id="f_11_late_afternoon" type="car" begin="36000.00" from="-E11" to="E6" end="43200.00" vehsPerHour="180"/>
    <flow id="f_12_late_afternoon" type="car" begin="36000.00" from="-E11" to="E9" end="43200.00" vehsPerHour="160"/>
    <flow id="f_13_late_afternoon" type="car" begin="36000.00" from="-E11" to="E13" end="43200.00" vehsPerHour="140.02"/>
    <flow id="f_14_late_afternoon" type="car" begin="36000.00" from="-E11" to="E15" end="43200.00" vehsPerHour="200"/>
    <flow id="f_15_late_afternoon" type="car" begin="36000.00" from="-E11" to="E24" end="43200.00" vehsPerHour="300"/>
    <flow id="f_16_late_afternoon" type="car" begin="36000.00" from="-E12" to="E9" end="43200.00" vehsPerHour="160"/>
    <flow id="f_17_late_afternoon" type="car" begin="36000.00" from="-E12" to="E6" end="43200.00" vehsPerHour="180"/>
    <flow id="f_18_late_afternoon" type="car" begin="36000.00" from="-E12" to="E15" end="43200.00" vehsPerHour="200"/>
    <flow id="f_19_late_afternoon" type="car" begin="36000.00" from="-E12" to="E24" end="43200.00" vehsPerHour="220.05"/>
    <flow id="f_1_late_afternoon" type="car" begin="36000.00" from="-E9" to="E6" end="43200.00" vehsPerHour="200"/>
    <flow id="f_20_late_afternoon" type="car" begin="36000.00" from="-E13" to="E24" end="43200.00" vehsPerHour="240"/>
    <flow id="f_21_late_afternoon" type="car" begin="36000.00" from="-E13" to="E6" end="43200.00" vehsPerHour="200"/>
    <flow id="f_22_late_afternoon" type="car" begin="36000.00" from="-E13" to="E15" end="43200.00" vehsPerHour="220.05"/>
    <flow id="f_23_late_afternoon" type="car" begin="36000.00" from="-E13" to="E10" end="43200.00" vehsPerHour="180"/>
    <flow id="f_24_late_afternoon" type="car" begin="36000.00" from="-E21" to="E6" end="43200.00" vehsPerHour="200"/>
    <flow id="f_25_late_afternoon" type="car" begin="36000.00" from="-E21" to="E15" end="43200.00" vehsPerHour="360"/>
    <flow id="f_26_late_afternoon" type="car" begin="36000.00" from="-E21" to="E11" end="43200.00" vehsPerHour="180"/>
    <flow id="f_27_late_afternoon" type="car" begin="36000.00" from="-E21" to="E12" end="43200.00" vehsPerHour="160"/>
    <flow id="f_28_late_afternoon" type="car" begin="36000.00" from="-E24" to="E11" end="43200.00" vehsPerHour="200"/>
    <flow id="f_29_late_afternoon" type="car" begin="36000.00" from="-E24" to="E15" end="43200.00" vehsPerHour="360"/>
    <flow id="f_2_late_afternoon" type="car" begin="36000.00" from="-E9" to="E24" end="43200.00" vehsPerHour="240"/>
    <flow id="f_30_late_afternoon" type="car" begin="36000.00" from="-E24" to="E13" end="43200.00" vehsPerHour="180"/>
    <flow id="f_31_late_afternoon" type="car" begin="36000.00" from="-E24" to="E6" end="43200.00" vehsPerHour="200"/>
    <flow id="f_32_late_afternoon" type="car" begin="36000.00" from="-E6" to="E24" end="43200.00" vehsPerHour="300"/>
    <flow id="f_33_late_afternoon" type="car" begin="36000.00" from="-E6" to="E9" end="43200.00" vehsPerHour="160"/>
    <flow id="f_34_late_afternoon" type="car" begin="36000.00" from="-E6" to="E21" end="43200.00" vehsPerHour="279.94"/>
    <flow id="f_35_late_afternoon" type="car" begin="36000.00" from="-E6" to="E13" end="43200.00" vehsPerHour="180"/>
    <flow id="f_36_late_afternoon" type="car" begin="36000.00" from="-E6" to="E12" end="43200.00" vehsPerHour="160"/>
    <flow id="f_37_late_afternoon" type="car" begin="36000.00" from="-E6" to="E11" end="43200.00" vehsPerHour="180"/>
    <flow id="f_38_late_afternoon" type="car" begin="36000.00" from="-E6" to="E15" end="43200.00" vehsPerHour="320"/>
    <flow id="f_3_late_afternoon" type="car" begin="36000.00" from="-E9" to="E10" end="43200.00" vehsPerHour="160"/>
    <flow id="f_4_late_afternoon" type="car" begin="36000.00" from="-E9" to="E21" end="43200.00" vehsPerHour="180"/>
    <flow id="f_5_late_afternoon" type="car" begin="36000.00" from="-E10" to="E6" end="43200.00" vehsPerHour="200"/>
    <flow id="f_6_late_afternoon" type="car" begin="36000.00" from="-E10" to="E21" end="43200.00" vehsPerHour="300"/>
    <flow id="f_7_late_afternoon" type="car" begin="36000.00" from="-E10" to="E15" end="43200.00" vehsPerHour="360"/>
    <flow id="f_8_late_afternoon" type="car" begin="36000.00" from="-E10" to="E24" end="43200.00" vehsPerHour="240"/>
    <flow id="f_9_late_afternoon" type="car" begin="36000.00" from="-E10" to="E13" end="43200.00" vehsPerHour="160"/>
    <!-- Routes from -E15 (NEW) -->
    <flow id="f_39_early_morning" type="car" begin="0" end="7200" from="-E15" to="E24" vehsPerHour="90"/>
    <flow id="f_39_morning_peak" type="car" begin="7200" end="10800" from="-E15" to="E24" vehsPerHour="180"/>
    <flow id="f_39_late_morning" type="car" begin="10800" end="21600" from="-E15" to="E24" vehsPerHour="98"/>
    <flow id="f_39_lunch" type="car" begin="21600" end="28800" from="-E15" to="E24" vehsPerHour="82"/>
    <flow id="f_39_early_afternoon" type="car" begin="28800" end="36000" from="-E15" to="E24" vehsPerHour="75"/>
    <flow id="f_39_late_afternoon" type="car" begin="36000" end="43200" from="-E15" to="E24" vehsPerHour="300"/>

    <flow id="f_40_early_morning" type="car" begin="0" end="7200" from="-E15" to="E13" vehsPerHour="90"/>
    <flow id="f_40_morning_peak" type="car" begin="7200" end="10800" from="-E15" to="E13" vehsPerHour="180"/>
    <flow id="f_40_late_morning" type="car" begin="10800" end="21600" from="-E15" to="E13" vehsPerHour="98"/>
    <flow id="f_40_lunch" type="car" begin="21600" end="28800" from="-E15" to="E13" vehsPerHour="82"/>
    <flow id="f_40_early_afternoon" type="car" begin="28800" end="36000" from="-E15" to="E13" vehsPerHour="75"/>
    <flow id="f_40_late_afternoon" type="car" begin="36000" end="43200" from="-E15" to="E13" vehsPerHour="300"/>

    <flow id="f_41_early_morning" type="car" begin="0" end="7200" from="-E15" to="E10" vehsPerHour="90"/>
    <flow id="f_41_morning_peak" type="car" begin="7200" end="10800" from="-E15" to="E10" vehsPerHour="180"/>
    <flow id="f_41_late_morning" type="car" begin="10800" end="21600" from="-E15" to="E10" vehsPerHour="98"/>
    <flow id="f_41_lunch" type="car" begin="21600" end="28800" from="-E15" to="E10" vehsPerHour="82"/>
    <flow id="f_41_early_afternoon" type="car" begin="28800" end="36000" from="-E15" to="E10" vehsPerHour="75"/>
    <flow id="f_41_late_afternoon" type="car" begin="36000" end="43200" from="-E15" to="E10" vehsPerHour="300"/>

    <flow id="f_42_early_morning" type="car" begin="0" end="7200" from="-E15" to="E6" vehsPerHour="90"/>
    <flow id="f_42_morning_peak" type="car" begin="7200" end="10800" from="-E15" to="E6" vehsPerHour="180"/>
    <flow id="f_42_late_morning" type="car" begin="10800" end="21600" from="-E15" to="E6" vehsPerHour="98"/>