<?xml version='1.0' encoding='utf-8'?>
<routes xmlns:xsi="http://www.w3.org/2001/XMLSchema-instance" xsi:noNamespaceSchemaLocation="http://sumo.dlr.de/xsd/routes_file.xsd">
    <!-- SPIKE SCENARIO: Sudden demand surge at hour 3 -->
    <vType id="bus" vClass="bus" />
    <vType id="passenger" vClass="passenger" />
    <vType id="truck" vClass="truck" />
    <flow id="spk_r_E9_E13_early_morning" type="passenger" begin="0" end="3600" from="-E9" to="E13" via="E8 E8.59" vehsPerHour="31" />
    <flow id="spk_r_E9_E13_morning_peak" type="passenger" begin="3600" end="7200" from="-E9" to="E13" via="E8 E8.59" vehsPerHour="101" />
    <flow id="spk_r_E9_E13_midday" type="passenger" begin="7200" end="10800" from="-E9" to="E13" via="E8 E8.59" vehsPerHour="360" />
    <flow id="spk_r_E9_E13_afternoon" type="passenger" begin="10800" end="14400" from="-E9" to="E13" via="E8 E8.59" vehsPerHour="162" />
    <flow id="spk_r_E9_E13_evening_peak" type="passenger" begin="14400" end="18000" from="-E9" to="E13" via="E8 E8.59" vehsPerHour="184" />
    <flow id="spk_r_E9_E13_night" type="passenger" begin="18000" end="21600" from="-E9" to="E13" via="E8 E8.59" vehsPerHour="29" />
    <flow id="spk_r_E9_E6_early_morning" type="passenger" begin="0" end="3600" from="-E9" to="E6" via="E8 E0 E0.55 E5" vehsPerHour="28" />
    <flow id="spk_r_E9_E6_morning_peak" type="passenger" begin="3600" end="7200" from="-E9" to="E6" via="E8 E0 E0.55 E5" vehsPerHour="90" />
    <flow id="spk_r_E9_E6_midday" type="passenger" begin="7200" end="10800" from="-E9" to="E6" via="E8 E0 E0.55 E5" vehsPerHour="320" />
    <flow id="spk_r_E9_E6_afternoon" type="passenger" begin="10800" end="14400" from="-E9" to="E6" via="E8 E0 E0.55 E5" vehsPerHour="144" />
    <flow id="spk_r_E9_E6_evening_peak" type="passenger" begin="14400" end="18000" from="-E9" to="E6" via="E8 E0 E0.55 E5" vehsPerHour="163" />
    <flow id="spk_r_E9_E6_night" type="passenger" begin="18000" end="21600" from="-E9" to="E6" via="E8 E0 E0.55 E5" vehsPerHour="26" />
    <flow id="spk_r_E9_E24_early_morning" type="passenger" begin="0" end="3600" from="-E9" to="E24" via="E8 E0 E0.55 E16" vehsPerHour="35" />
    <flow id="spk_r_E9_E24_morning_peak" type="passenger" begin="3600" end="7200" from="-E9" to="E24" via="E8 E0 E0.55 E16" vehsPerHour="112" />
    <flow id="spk_r_E9_E24_midday" type="passenger" begin="7200" end="10800" from="-E9" to="E24" via="E8 E0 E0.55 E16" vehsPerHour="400" />
    <flow id="spk_r_E9_E24_afternoon" type="passenger" begin="10800" end="14400" from="-E9" to="E24" via="E8 E0 E0.55 E16" vehsPerHour="180" />
    <flow id="spk_r_E9_E24_evening_peak" type="passenger" begin="14400" end="18000" from="-E9" to="E24" via="E8 E0 E0.55 E16" vehsPerHour="204" />
    <flow id="spk_r_E9_E24_night" type="passenger" begin="18000" end="21600" from="-E9" to="E24" via="E8 E0 E0.55 E16" vehsPerHour="32" />
    <flow id="spk_r_E9_E21_early_morning" type="passenger" begin="0" end="3600" from="-E9" to="E21" via="E17 E19 E20" vehsPerHour="38" />
    <flow id="spk_r_E9_E21_morning_peak" type="passenger" begin="3600" end="7200" from="-E9" to="E21" via="E17 E19 E20" vehsPerHour="123" />
    <flow id="spk_r_E9_E21_midday" type="passenger" begin="7200" end="10800" from="-E9" to="E21" via="E17 E19 E20" vehsPerHour="440" />
    <flow id="spk_r_E9_E21_afternoon" type="passenger" begin="10800" end="14400" from="-E9" to="E21" via="E17 E19 E20" vehsPerHour="198" />
    <flow id="spk_r_E9_E21_evening_peak" type="passenger" begin="14400" end="18000" from="-E9" to="E21" via="E17 E19 E20" vehsPerHour="224" />
    <flow id="spk_r_E9_E21_night" type="passenger" begin="18000" end="21600" from="-E9" to="E21" via="E17 E19 E20" vehsPerHour="35" />
    <flow id="spk_r_E9_E12_early_morning" type="passenger" begin="0" end="3600" from="-E9" to="E12" via="E8 E8.59" vehsPerHour="29" />
    <flow id="spk_r_E9_E12_morning_peak" type="passenger" begin="3600" end="7200" from="-E9" to="E12" via="E8 E8.59" vehsPerHour="94" />
    <flow id="spk_r_E9_E12_midday" type="passenger" begin="7200" end="10800" from="-E9" to="E12" via="E8 E8.59" vehsPerHour="336" />
    <flow id="spk_r_E9_E12_afternoon" type="passenger" begin="10800" end="14400" from="-E9" to="E12" via="E8 E8.59" vehsPerHour="152" />
    <flow id="spk_r_E9_E12_evening_peak" type="passenger" begin="14400" end="18000" from="-E9" to="E12" via="E8 E8.59" vehsPerHour="172" />
    <flow id="spk_r_E9_E12_night" type="passenger" begin="18000" end="21600" from="-E9" to="E12" via="E8 E8.59" vehsPerHour="27" />
    <flow id="spk_r_E9_E10_early_morning" type="passenger" begin="0" end="3600" from="-E9" to="E10" vehsPerHour="27" />
    <flow id="spk_r_E9_E10_morning_peak" type="passenger" begin="3600" end="7200" from="-E9" to="E10" vehsPerHour="85" />
    <flow id="spk_r_E9_E10_midday" type="passenger" begin="7200" end="10800" from="-E9" to="E10" vehsPerHour="304" />
    <flow id="spk_r_E9_E10_afternoon" type="passenger" begin="10800" end="14400" from="-E9" to="E10" vehsPerHour="136" />
    <flow id="spk_r_E9_E10_evening_peak" type="passenger" begin="14400" end="18000" from="-E9" to="E10" vehsPerHour="155" />
    <flow id="spk_r_E9_E10_night" type="passenger" begin="18000" end="21600" from="-E9" to="E10" vehsPerHour="24" />
    <flow id="spk_r_E10_E9_early_morning" type="passenger" begin="0" end="3600" from="-E10" to="E9" vehsPerHour="34" />
    <flow id="spk_r_E10_E9_morning_peak" type="passenger" begin="3600" end="7200" from="-E10" to="E9" vehsPerHour="108" />
    <flow id="spk_r_E10_E9_midday" type="passenger" begin="7200" end="10800" from="-E10" to="E9" vehsPerHour="384" />
    <flow id="spk_r_E10_E9_afternoon" type="passenger" begin="10800" end="14400" from="-E10" to="E9" vehsPerHour="172" />
    <flow id="spk_r_E10_E9_evening_peak" type="passenger" begin="14400" end="18000" from="-E10" to="E9" vehsPerHour="196" />
    <flow id="spk_r_E10_E9_night" type="passenger" begin="18000" end="21600" from="-E10" to="E9" vehsPerHour="30" />
    <flow id="spk_r_E10_E6_early_morning" type="passenger" begin="0" end="3600" from="-E10" to="E6" via="E17 E18 E4" vehsPerHour="24" />
    <flow id="spk_r_E10_E6_morning_peak" type="passenger" begin="3600" end="7200" from="-E10" to="E6" via="E17 E18 E4" vehsPerHour="78" />
    <flow id="spk_r_E10_E6_midday" type="passenger" begin="7200" end="10800" from="-E10" to="E6" via="E17 E18 E4" vehsPerHour="280" />
    <flow id="spk_r_E10_E6_afternoon" type="passenger" begin="10800" end="14400" from="-E10" to="E6" via="E17 E18 E4" vehsPerHour="126" />
    <flow id="spk_r_E10_E6_evening_peak" type="passenger" begin="14400" end="18000" from="-E10" to="E6" via="E17 E18 E4" vehsPerHour="143" />
    <flow id="spk_r_E10_E6_night" type="passenger" begin="18000" end="21600" from="-E10" to="E6" via="E17 E18 E4" vehsPerHour="22" />
    <flow id="spk_r_E10_E13_early_morning" type="passenger" begin="0" end="3600" from="-E10" to="E13" via="E8 E8.59" vehsPerHour="28" />
    <flow id="spk_r_E10_E13_morning_peak" type="passenger" begin="3600" end="7200" from="-E10" to="E13" via="E8 E8.59" vehsPerHour="90" />
    <flow id="spk_r_E10_E13_midday" type="passenger" begin="7200" end="10800" from="-E10" to="E13" via="E8 E8.59" vehsPerHour="320" />
    <flow id="spk_r_E10_E13_afternoon" type="passenger" begin="10800" end="14400" from="-E10" to="E13" via="E8 E8.59" vehsPerHour="144" />
    <flow id="spk_r_E10_E13_evening_peak" type="passenger" begin="14400" end="18000" from="-E10" to="E13" via="E8 E8.59" vehsPerHour="163" />
    <flow id="spk_r_E10_E13_night" type="passenger" begin="18000" end="21600" from="-E10" to="E13" via="E8 E8.59" vehsPerHour="26" />
    <flow id="spk_r_E10_E24_early_morning" type="passenger" begin="0" end="3600" from="-E10" to="E24" via="E8 E0 E0.55 E16" vehsPerHour="31" />
    <flow id="spk_r_E10_E24_morning_peak" type="passenger" begin="3600" end="7200" from="-E10" to="E24" via="E8 E0 E0.55 E16" vehsPerHour="99" />
    <flow id="spk_r_E10_E24_midday" type="passenger" begin="7200" end="10800" from="-E10" to="E24" via="E8 E0 E0.55 E16" vehsPerHour="352" />
    <flow id="spk_r_E10_E24_afternoon" type="passenger" begin="10800" end="14400" from="-E10" to="E24" via="E8 E0 E0.55 E16" vehsPerHour="158" />
    <flow id="spk_r_E10_E24_evening_peak" type="passenger" begin="14400" end="18000" from="-E10" to="E24" via="E8 E0 E0.55 E16" vehsPerHour="180" />
    <flow id="spk_r_E10_E24_night" type="passenger" begin="18000" end="21600" from="-E10" to="E24" via="E8 E0 E0.55 E16" vehsPerHour="28" />
    <flow id="spk_r_E10_E21_early_morning" type="passenger" begin="0" end="3600" from="-E10" to="E21" via="E17 E19 E20" vehsPerHour="32" />
    <flow id="spk_r_E10_E21_morning_peak" type="passenger" begin="3600" end="7200" from="-E10" to="E21" via="E17 E19 E20" vehsPerHour="103" />
    <flow id="spk_r_E10_E21_midday" type="passenger" begin="7200" end="10800" from="-E10" to="E21" via="E17 E19 E20" vehsPerHour="368" />
    <flow id="spk_r_E10_E21_afternoon" type="passenger" begin="10800" end="14400" from="-E10" to="E21" via="E17 E19 E20" vehsPerHour="166" />
    <flow id="spk_r_E10_E21_evening_peak" type="passenger" begin="14400" end="18000" from="-E10" to="E21" via="E17 E19 E20" vehsPerHour="187" />
    <flow id="spk_r_E10_E21_night" type="passenger" begin="18000" end="21600" from="-E10" to="E21" via="E17 E19 E20" vehsPerHour="30" />
    <flow id="spk_r_E6_E21_early_morning" type="passenger" begin="0" end="3600" from="-E6" to="E21" via="-E5 -E0.55 E20" vehsPerHour="36" />
    <flow id="spk_r_E6_E21_morning_peak" type="passenger" begin="3600" end="7200" from="-E6" to="E21" via="-E5 -E0.55 E20" vehsPerHour="116" />
    <flow id="spk_r_E6_E21_midday" type="passenger" begin="7200" end="10800" from="-E6" to="E21" via="-E5 -E0.55 E20" vehsPerHour="416" />
    <flow id="spk_r_E6_E21_afternoon" type="passenger" begin="10800" end="14400" from="-E6" to="E21" via="-E5 -E0.55 E20" vehsPerHour="188" />
    <flow id="spk_r_E6_E21_evening_peak" type="passenger" begin="14400" end="18000" from="-E6" to="E21" via="-E5 -E0.55 E20" vehsPerHour="212" />
    <flow id="spk_r_E6_E21_night" type="passenger" begin="18000" end="21600" from="-E6" to="E21" via="-E5 -E0.55 E20" vehsPerHour="34" />
    <flow id="spk_r_E6_E10_early_morning" type="passenger" begin="0" end="3600" from="-E6" to="E10" via="-E4 -E18 -E17" vehsPerHour="25" />
    <flow id="spk_r_E6_E10_morning_peak" type="passenger" begin="3600" end="7200" from="-E6" to="E10" via="-E4 -E18 -E17" vehsPerHour="80" />
    <flow id="spk_r_E6_E10_midday" type="passenger" begin="7200" end="10800" from="-E6" to="E10" via="-E4 -E18 -E17" vehsPerHour="288" />
    <flow id="spk_r_E6_E10_afternoon" type="passenger" begin="10800" end="14400" from="-E6" to="E10" via="-E4 -E18 -E17" vehsPerHour="130" />
    <flow id="spk_r_E6_E10_evening_peak" type="passenger" begin="14400" end="18000" from="-E6" to="E10" via="-E4 -E18 -E17" vehsPerHour="146" />
    <flow id="spk_r_E6_E10_night" type="passenger" begin="18000" end="21600" from="-E6" to="E10" via="-E4 -E18 -E17" vehsPerHour="23" />
    <flow id="spk_r_E6_E11_early_morning" type="passenger" begin="0" end="3600" from="-E6" to="E11" via="-E5 -E0.55 -E0" vehsPerHour="34" />
    <flow id="spk_r_E6_E11_morning_peak" type="passenger" begin="3600" end="7200" from="-E6" to="E11" via="-E5 -E0.55 -E0" vehsPerHour="108" />
    <flow id="spk_r_E6_E11_midday" type="passenger" begin="7200" end="10800" from="-E6" to="E11" via="-E5 -E0.55 -E0" vehsPerHour="384" />
    <flow id="spk_r_E6_E11_afternoon" type="passenger" begin="10800" end="14400" from="-E6" to="E11" via="-E5 -E0.55 -E0" vehsPerHour="172" />
    <flow id="spk_r_E6_E11_evening_peak" type="passenger" begin="14400" end="18000" from="-E6" to="E11" via="-E5 -E0.55 -E0" vehsPerHour="196" />
    <flow id="spk_r_E6_E11_night" type="passenger" begin="18000" end="21600" from="-E6" to="E11" via="-E5 -E0.55 -E0" vehsPerHour="30" />
    <flow id="spk_r_E6_E15_early_morning" type="passenger" begin="0" end="3600" from="-E6" to="E15" via="-E4" vehsPerHour="30" />
    <flow id="spk_r_E6_E15_morning_peak" type="passenger" begin="3600" end="7200" from="-E6" to="E15" via="-E4" vehsPerHour="97" />
    <flow id="spk_r_E6_E15_midday" type="passenger" begin="7200" end="10800" from="-E6" to="E15" via="-E4" vehsPerHour="344" />
    <flow id="spk_r_E6_E15_afternoon" type="passenger" begin="10800" end="14400" from="-E6" to="E15" via="-E4" vehsPerHour="154" />
    <flow id="spk_r_E6_E15_evening_peak" type="passenger" begin="14400" end="18000" from="-E6" to="E15" via="-E4" vehsPerHour="175" />
    <flow id="spk_r_E6_E15_night" type="passenger" begin="18000" end="21600" from="-E6" to="E15" via="-E4" vehsPerHour="27" />
    <flow id="spk_b_1_early_morning" type="bus" begin="0.00" from="-E15" to="E24" via="E4 -E5 E16" end="3600.00" vehsPerHour="6" />
    <flow id="spk_b_2_early_morning" type="bus" begin="0.00" from="-E15" to="E21" via="-E18 E19 E20" end="3600.00" vehsPerHour="6" />
    <flow id="spk_f_0_early_morning" type="passenger" begin="0.00" from="-E15" to="E24" via="E4 -E5 E16" end="3600.00" vehsPerHour="97" />
    <flow id="spk_f_16_early_morning" type="passenger" begin="0.00" from="-E11" to="E21" end="3600.00" vehsPerHour="62" />
    <flow id="spk_f_17_early_morning" type="passenger" begin="0.00" from="-E12" to="E15" end="3600.00" vehsPerHour="66" />
    <flow id="spk_f_19_early_morning" type="passenger" begin="0.00" from="-E13" to="E9" end="3600.00" vehsPerHour="56" />
    <flow id="spk_f_1_early_morning" type="passenger" begin="0.00" from="-E15" to="E21" via="-E18 E19 E20" end="3600.00" vehsPerHour="92" />
    <flow id="spk_f_20_early_morning" type="passenger" begin="0.00" from="-E13" to="E15" end="3600.00" vehsPerHour="72" />
    <flow id="spk_f_21_early_morning" type="passenger" begin="0.00" from="-E24" to="E12" via="-E23" end="3600.00" vehsPerHour="64" />
    <flow id="spk_f_22_early_morning" type="passenger" begin="0.00" from="-E24" to="E15" end="3600.00" vehsPerHour="69" />
    <flow id="spk_f_23_early_morning" type="passenger" begin="0.00" from="-E21" to="E15" end="3600.00" vehsPerHour="75" />
    <flow id="spk_f_24_early_morning" type="passenger" begin="0.00" from="-E21" to="E10" end="3600.00" vehsPerHour="61" />
    <flow id="spk_f_2_early_morning" type="passenger" begin="0.00" from="-E15" to="E10" via="-E18 -E17" end="3600.00" vehsPerHour="86" />
    <flow id="spk_t_1_early_morning" type="truck" begin="0.00" from="-E15" to="E10" via="-E18 -E17" end="3600.00" vehsPerHour="5" />
    <flow id="spk_b_1_morning_peak" type="bus" begin="3600.00" from="-E15" to="E24" via="E4 -E5 E16" end="7200.00" vehsPerHour="19" />
    <flow id="spk_b_2_morning_peak" type="bus" begin="3600.00" from="-E15" to="E21" via="-E18 E19 E20" end="7200.00" vehsPerHour="19" />
    <flow id="spk_f_0_morning_peak" type="passenger" begin="3600.00" from="-E15" to="E24" via="E4 -E5 E16" end="7200.00" vehsPerHour="311" />
    <flow id="spk_f_16_morning_peak" type="passenger" begin="3600.00" from="-E11" to="E21" end="7200.00" vehsPerHour="199" />
    <flow id="spk_f_17_morning_peak" type="passenger" begin="3600.00" from="-E12" to="E15" end="7200.00" vehsPerHour="214" />
    <flow id="spk_f_19_morning_peak" type="passenger" begin="3600.00" from="-E13" to="E9" end="7200.00" vehsPerHour="180" />
    <flow id="spk_f_1_morning_peak" type="passenger" begin="3600.00" from="-E15" to="E21" via="-E18 E19 E20" end="7200.00" vehsPerHour="294" />
    <flow id="spk_f_20_morning_peak" type="passenger" begin="3600.00" from="-E13" to="E15" end="7200.00" vehsPerHour="230" />
    <flow id="spk_f_21_morning_peak" type="passenger" begin="3600.00" from="-E24" to="E12" via="-E23" end="7200.00" vehsPerHour="206" />
    <flow id="spk_f_22_morning_peak" type="passenger" begin="3600.00" from="-E24" to="E15" end="7200.00" vehsPerHour="223" />
    <flow id="spk_f_23_morning_peak" type="passenger" begin="3600.00" from="-E21" to="E15" end="7200.00" vehsPerHour="241" />
    <flow id="spk_f_24_morning_peak" type="passenger" begin="3600.00" from="-E21" to="E10" end="7200.00" vehsPerHour="196" />
    <flow id="spk_f_2_morning_peak" type="passenger" begin="3600.00" from="-E15" to="E10" via="-E18 -E17" end="7200.00" vehsPerHour="275" />
    <flow id="spk_t_1_morning_peak" type="truck" begin="3600.00" from="-E15" to="E10" via="-E18 -E17" end="7200.00" vehsPerHour="16" />
    <flow id="spk_b_1_midday" type="bus" begin="7200.00" from="-E15" to="E24" via="E4 -E5 E16" end="10800.00" vehsPerHour="68" />
    <flow id="spk_b_2_midday" type="bus" begin="7200.00" from="-E15" to="E21" via="-E18 E19 E20" end="10800.00" vehsPerHour="68" />
    <flow id="spk_f_0_midday" type="passenger" begin="7200.00" from="-E15" to="E24" via="E4 -E5 E16" end="10800.00" vehsPerHour="1112" />
    <flow id="spk_f_16_midday" type="passenger" begin="7200.00" from="-E11" to="E21" end="10800.00" vehsPerHour="712" />
    <flow id="spk_f_17_midday" type="passenger" begin="7200.00" from="-E12" to="E15" end="10800.00" vehsPerHour="764" />
    <flow id="spk_f_19_midday" type="passenger" begin="7200.00" from="-E13" to="E9" end="10800.00" vehsPerHour="644" />
    <flow id="spk_f_1_midday" type="passenger" begin="7200.00" from="-E15" to="E21" via="-E18 E19 E20" end="10800.00" vehsPerHour="1052" />
    <flow id="spk_f_20_midday" type="passenger" begin="7200.00" from="-E13" to="E15" end="10800.00" vehsPerHour="824" />
    <flow id="spk_f_21_midday" type="passenger" begin="7200.00" from="-E24" to="E12" via="-E23" end="10800.00" vehsPerHour="736" />
    <flow id="spk_f_22_midday" type="passenger" begin="7200.00" from="-E24" to="E15" end="10800.00" vehsPerHour="796" />
    <flow id="spk_f_23_midday" type="passenger" begin="7200.00" from="-E21" to="E15" end="10800.00" vehsPerHour="860" />
    <flow id="spk_f_24_midday" type="passenger" begin="7200.00" from="-E21" to="E10" end="10800.00" vehsPerHour="700" />
    <flow id="spk_f_2_midday" type="passenger" begin="7200.00" from="-E15" to="E10" via="-E18 -E17" end="10800.00" vehsPerHour="984" />
    <flow id="spk_t_1_midday" type="truck" begin="7200.00" from="-E15" to="E10" via="-E18 -E17" end="10800.00" vehsPerHour="56" />
    <flow id="spk_b_1_afternoon" type="bus" begin="10800.00" from="-E15" to="E24" via="E4 -E5 E16" end="14400.00" vehsPerHour="30" />
    <flow id="spk_b_2_afternoon" type="bus" begin="10800.00" from="-E15" to="E21" via="-E18 E19 E20" end="14400.00" vehsPerHour="30" />
    <flow id="spk_f_0_afternoon" type="passenger" begin="10800.00" from="-E15" to="E24" via="E4 -E5 E16" end="14400.00" vehsPerHour="500" />
    <flow id="spk_f_16_afternoon" type="passenger" begin="10800.00" from="-E11" to="E21" end="14400.00" vehsPerHour="320" />
    <flow id="spk_f_17_afternoon" type="passenger" begin="10800.00" from="-E12" to="E15" end="14400.00" vehsPerHour="342" />
    <flow id="spk_f_19_afternoon" type="passenger" begin="10800.00" from="-E13" to="E9" end="14400.00" vehsPerHour="288" />
    <flow id="spk_f_1_afternoon" type="passenger" begin="10800.00" from="-E15" to="E21" via="-E18 E19 E20" end="14400.00" vehsPerHour="472" />
    <flow id="spk_f_20_afternoon" type="passenger" begin="10800.00" from="-E13" to="E15" end="14400.00" vehsPerHour="370" />
    <flow id="spk_f_21_afternoon" type="passenger" begin="10800.00" from="-E24" to="E12" via="-E23" end="14400.00" vehsPerHour="330" />
    <flow id="spk_f_22_afternoon" type="passenger" begin="10800.00" from="-E24" to="E15" end="14400.00" vehsPerHour="358" />
    <flow id="spk_f_23_afternoon" type="passenger" begin="10800.00" from="-E21" to="E15" end="14400.00" vehsPerHour="386" />
    <flow id="spk_f_24_afternoon" type="passenger" begin="10800.00" from="-E21" to="E10" end="14400.00" vehsPerHour="314" />
    <flow id="spk_f_2_afternoon" type="passenger" begin="10800.00" from="-E15" to="E10" via="-E18 -E17" end="14400.00" vehsPerHour="442" />
    <flow id="spk_t_1_afternoon" type="truck" begin="10800.00" from="-E15" to="E10" via="-E18 -E17" end="14400.00" vehsPerHour="24" />
    <flow id="spk_b_1_evening_peak" type="bus" begin="14400.00" from="-E15" to="E24" via="E4 -E5 E16" end="18000.00" vehsPerHour="34" />
    <flow id="spk_b_2_evening_peak" type="bus" begin="14400.00" from="-E15" to="E21" via="-E18 E19 E20" end="18000.00" vehsPerHour="34" />
    <flow id="spk_f_0_evening_peak" type="passenger" begin="14400.00" from="-E15" to="E24" via="E4 -E5 E16" end="18000.00" vehsPerHour="566" />
    <flow id="spk_f_16_evening_peak" type="passenger" begin="14400.00" from="-E11" to="E21" end="18000.00" vehsPerHour="362" />
    <flow id="spk_f_17_evening_peak" type="passenger" begin="14400.00" from="-E12" to="E15" end="18000.00" vehsPerHour="389" />
    <flow id="spk_f_19_evening_peak" type="passenger" begin="14400.00" from="-E13" to="E9" end="18000.00" vehsPerHour="328" />
    <flow id="spk_f_1_evening_peak" type="passenger" begin="14400.00" from="-E15" to="E21" via="-E18 E19 E20" end="18000.00" vehsPerHour="537" />
    <flow id="spk_f_20_evening_peak" type="passenger" begin="14400.00" from="-E13" to="E15" end="18000.00" vehsPerHour="420" />
    <flow id="spk_f_21_evening_peak" type="passenger" begin="14400.00" from="-E24" to="E12" via="-E23" end="18000.00" vehsPerHour="374" />
    <flow id="spk_f_22_evening_peak" type="passenger" begin="14400.00" from="-E24" to="E15" end="18000.00" vehsPerHour="406" />
    <flow id="spk_f_23_evening_peak" type="passenger" begin="14400.00" from="-E21" to="E15" end="18000.00" vehsPerHour="438" />
    <flow id="spk_f_24_evening_peak" type="passenger" begin="14400.00" from="-E21" to="E10" end="18000.00" vehsPerHour="356" />
    <flow id="spk_f_2_evening_peak" type="passenger" begin="14400.00" from="-E15" to="E10" via="-E18 -E17" end="18000.00" vehsPerHour="502" />
    <flow id="spk_t_1_evening_peak" type="truck" begin="14400.00" from="-E15" to="E10" via="-E18 -E17" end="18000.00" vehsPerHour="29" />
    <flow id="spk_b_1_night" type="bus" begin="18000.00" from="-E15" to="E24" via="E4 -E5 E16" end="21600.00" vehsPerHour="5" />
    <flow id="spk_b_2_night" type="bus" begin="18000.00" from="-E15" to="E21" via="-E18 E19 E20" end="21600.00" vehsPerHour="5" />
    <flow id="spk_f_0_night" type="passenger" begin="18000.00" from="-E15" to="E24" via="E4 -E5 E16" end="21600.00" vehsPerHour="89" />
    <flow id="spk_f_16_night" type="passenger" begin="18000.00" from="-E11" to="E21" end="21600.00" vehsPerHour="57" />
    <flow id="spk_f_17_night" type="passenger" begin="18000.00" from="-E12" to="E15" end="21600.00" vehsPerHour="61" />
    <flow id="spk_f_19_night" type="passenger" begin="18000.00" from="-E13" to="E9" end="21600.00" vehsPerHour="51" />
    <flow id="spk_f_1_night" type="passenger" begin="18000.00" from="-E15" to="E21" via="-E18 E19 E20" end="21600.00" vehsPerHour="84" />
    <flow id="spk_f_20_night" type="passenger" begin="18000.00" from="-E13" to="E15" end="21600.00" vehsPerHour="66" />
    <flow id="spk_f_21_night" type="passenger" begin="18000.00" from="-E24" to="E12" via="-E23" end="21600.00" vehsPerHour="58" />
    <flow id="spk_f_22_night" type="passenger" begin="18000.00" from="-E24" to="E15" end="21600.00" vehsPerHour="63" />
    <flow id="spk_f_23_night" type="passenger" begin="18000.00" from="-E21" to="E15" end="21600.00" vehsPerHour="69" />
    <flow id="spk_f_24_night" type="passenger" begin="18000.00" from="-E21" to="E10" end="21600.00" vehsPerHour="56" />
    <flow id="spk_f_2_night" type="passenger" begin="18000.00" from="-E15" to="E10" via="-E18 -E17" end="21600.00" vehsPerHour="78" />
    <flow id="spk_t_1_night" type="truck" begin="18000.00" from="-E15" to="E10" via="-E18 -E17" end="21600.00" vehsPerHour="4" />
</routes>