<?xml version="1.0" encoding="UTF-8"?>

<!-- generated on 2025-12-13 12:44:06 by Eclipse SUMO netedit Version 1.24.0
-->

<routes xmlns:xsi="http://www.w3.org/2001/XMLSchema-instance" xsi:noNamespaceSchemaLocation="http://sumo.dlr.de/xsd/routes_file.xsd">
    <!-- Routes -->
    <route id="r_0" edges="-E10 E17 E18 E15"/>
    <!-- Vehicles, persons and containers (sorted by depart) -->
    <flow id="f_0" begin="0.00" from="-E9" to="E13" end="3600.00" vehsPerHour="1800"/>
    <flow id="f_1" begin="0.00" from="-E9" to="E6" end="3600.00" vehsPerHour="1800"/>
    <flow id="f_10" begin="0.00" from="-E10" to="E15" end="3600.00" vehsPerHour="1800"/>
    <flow id="f_11" begin="0.00" from="-E11" to="E6" end="3600.00" vehsPerHour="1800"/>
    <flow id="f_12" begin="0.00" from="-E11" to="E9" end="3600.00" vehsPerHour="1800"/>
    <flow id="f_13" begin="0.00" from="-E11" to="E13" end="3600.00" vehsPerHour="1800"/>
    <flow id="f_14" begin="0.00" from="-E11" to="E15" end="3600.00" vehsPerHour="1800"/>
    <flow id="f_15" begin="0.00" from="-E11" to="E24" end="3600.00" vehsPerHour="1800"/>
    <flow id="f_16" begin="0.00" from="-E12" to="E9" end="3600.00" vehsPerHour="1800"/>
    <flow id="f_17" begin="0.00" from="-E12" to="E6" end="3600.00" vehsPerHour="1800"/>
    <flow id="f_18" begin="0.00" from="-E12" to="E15" end="3600.00" vehsPerHour="1800"/>
    <flow id="f_19" begin="0.00" from="-E12" to="E24" end="3600.00" vehsPerHour="1800"/>
    <flow id="f_2" begin="0.00" from="-E9" to="E24" end="3600.00" vehsPerHour="1800"/>
    <flow id="f_20" begin="0.00" from="-E13" to="E24" end="3600.00" vehsPerHour="1800"/>
    <flow id="f_21" begin="0.00" from="-E13" to="E6" end="3600.00" vehsPerHour="1800"/>
    <flow id="f_22" begin="0.00" from="-E13" to="E15" end="3600.00" vehsPerHour="1800"/>
    <flow id="f_23" begin="0.00" from="-E13" to="E10" end="3600.00" vehsPerHour="1800"/>
    <flow id="f_24" begin="0.00" from="-E21" to="E6" end="3600.00" vehsPerHour="1800"/>
    <flow id="f_25" begin="0.00" from="-E21" to="E15" end="3600.00" vehsPerHour="1800"/>
    <flow id="f_26" begin="0.00" from="-E21" to="E11" end="3600.00" vehsPerHour="1800"/>
    <flow id="f_27" begin="0.00" from="-E21" to="E12" end="3600.00" vehsPerHour="1800"/>
    <flow id="f_28" begin="0.00" from="-E24" to="E11" end="3600.00" vehsPerHour="1800"/>
    <flow id="f_29" begin="0.00" from="-E24" to="E15" end="3600.00" vehsPerHour="1800"/>
    <flow id="f_3" begin="0.00" from="-E9" to="E10" end="3600.00" vehsPerHour="1800"/>
    <flow id="f_30" begin="0.00" from="-E24" to="E13" end="3600.00" vehsPerHour="1800"/>
    <flow id="f_31" begin="0.00" from="-E24" to="E6" end="3600.00" vehsPerHour="1800"/>
    <flow id="f_32" begin="0.00" from="-E6" to="E24" end="3600.00" vehsPerHour="1800"/>
    <flow id="f_33" begin="0.00" from="-E6" to="E9" end="3600.00" vehsPerHour="1800"/>
    <flow id="f_34" begin="0.00" from="-E6" to="E21" end="3600.00" vehsPerHour="1800"/>
    <flow id="f_35" begin="0.00" from="-E6" to="E13" end="3600.00" vehsPerHour="1800"/>
    <flow id="f_36" begin="0.00" from="-E6" to="E12" end="3600.00" vehsPerHour="1800"/>
    <flow id="f_37" begin="0.00" from="-E6" to="E11" end="3600.00" vehsPerHour="1800"/>
    <flow id="f_38" begin="0.00" from="-E6" to="E15" end="3600.00" vehsPerHour="1800"/>
    <flow id="f_4" begin="0.00" from="-E9" to="E21" end="3600.00" vehsPerHour="1800"/>
    <flow id="f_5" begin="0.00" from="-E10" to="E6" end="3600.00" vehsPerHour="1800"/>
    <flow id="f_6" begin="0.00" from="-E10" to="E21" end="3600.00" vehsPerHour="1800"/>
    <flow id="f_7" begin="0.00" from="-E10" to="E15" end="3600.00" vehsPerHour="1800"/>
    <flow id="f_8" begin="0.00" from="-E10" to="E24" end="3600.00" vehsPerHour="1800"/>
    <flow id="f_9" begin="0.00" from="-E10" to="E13" end="3600.00" vehsPerHour="1800"/>
</routes>
