<?xml version="1.0" encoding="UTF-8"?>
<routes>
    <vType id="passenger" vClass="passenger"/>
    <flow id="test1" from="-E15" to="E15" begin="0" end="100" vehsPerHour="360" type="passenger"/>
</routes>
