<?xml version="1.0" encoding="UTF-8"?>

<configuration xmlns:xsi="http://www.w3.org/2001/XMLSchema-instance" xsi:noNamespaceSchemaLocation="http://sumo.dlr.de/xsd/sumoConfiguration.xsd">

    <input>
        <net-file value="k1.net.xml"/>
        <route-files value="k1_routes_3h_varying.rou.xml"/>
    </input>

    <time>
        <begin value="0"/>
        <end value="10800"/>
        <step-length value="1"/>
    </time>

    <processing>
        <ignore-route-errors value="true"/>
        <time-to-teleport value="-1"/>
    </processing>

    <gui_only>
        <gui-settings-file value="view_settings.xml"/>
        <start value="true"/>
        <quit-on-end value="false"/>
        <delay value="100"/>
    </gui_only>

</configuration>
