<?xml version="1.0" encoding="UTF-8"?>

<!-- generated on 2025-10-21 11:16:28 by Eclipse SUMO netgenerate Version 1.24.0
<netgenerateConfiguration xmlns:xsi="http://www.w3.org/2001/XMLSchema-instance" xsi:noNamespaceSchemaLocation="http://sumo.dlr.de/xsd/netgenerateConfiguration.xsd">

    <grid_network>
        <grid value="false"/>
        <grid.number value="8"/>
        <grid.length value="180.00"/>
        <grid.x-number value="8"/>
        <grid.y-number value="8"/>
        <grid.x-length value="200.00"/>
        <grid.y-length value="200.00"/>
    </grid_network>

    <spider_network>
        <spider value="false"/>
        <spider.omit-center value="false"/>
    </spider_network>

    <random_network>
        <rand value="true"/>
        <rand.iterations value="180"/>
        <rand.max-distance value="350.00"/>
        <rand.min-distance value="180.00"/>
        <rand.grid value="true"/>
    </random_network>

    <output>
        <output-file value="D:\Codes\Projects\Traffic-Light-Automation\n1.net.xml"/>
    </output>

    <building_defaults>
        <default.lanenumber value="2"/>
        <default.spreadtype value="right"/>
    </building_defaults>

    <tls_building>
        <tls.green.time value="30"/>
    </tls_building>

    <bicycle>
        <bikelanes.guess value="false"/>
    </bicycle>

</netgenerateConfiguration>
-->

<net version="1.20" junctionCornerDetail="5" limitTurnSpeed="5.50" xmlns:xsi="http://www.w3.org/2001/XMLSchema-instance" xsi:noNamespaceSchemaLocation="http://sumo.dlr.de/xsd/net_file.xsd">

    <location netOffset="1980.00,2340.00" convBoundary="0.00,0.00,3420.00,3240.00" origBoundary="-1980.00,-2340.00,1440.00,900.00" projParameter="!"/>

    <edge id=":1_0" function="internal">
        <lane id=":1_0_0" index="0" speed="6.51" length="9.03" shape="1975.20,2350.40 1974.85,2347.95 1973.80,2346.20 1972.05,2345.15 1969.60,2344.80"/>
    </edge>
    <edge id=":1_1" function="internal">
        <lane id=":1_1_0" index="0" speed="13.89" length="20.80" shape="1975.20,2350.40 1975.20,2329.60"/>
        <lane id=":1_1_1" index="1" speed="13.89" length="20.80" shape="1978.40,2350.40 1978.40,2329.60"/>
    </edge>
    <edge id=":1_3" function="internal">
        <lane id=":1_3_0" index="0" speed="9.26" length="5.01" shape="1978.40,2350.40 1979.11,2345.44"/>
    </edge>
    <edge id=":1_4" function="internal">
        <lane id=":1_4_0" index="0" speed="3.65" length="1.44" shape="1978.40,2350.40 1979.20,2349.20"/>
    </edge>
    <edge id=":1_20" function="internal">
        <lane id=":1_20_0" index="0" speed="9.26" length="14.34" shape="1979.11,2345.44 1979.15,2345.15 1981.40,2341.40 1985.15,2339.15 1990.40,2338.40"/>
    </edge>
    <edge id=":1_21" function="internal">
        <lane id=":1_21_0" index="0" speed="3.65" length="3.23" shape="1979.20,2349.20 1980.00,2348.80 1980.80,2349.20 1981.60,2350.40"/>
    </edge>
    <edge id=":1_5" function="internal">
        <lane id=":1_5_0" index="0" speed="6.51" length="9.03" shape="1990.40,2344.80 1987.95,2345.15 1986.20,2346.20 1985.15,2347.95 1984.80,2350.40"/>
    </edge>
    <edge id=":1_6" function="internal">
        <lane id=":1_6_0" index="0" speed="13.89" length="20.80" shape="1990.40,2344.80 1969.60,2344.80"/>
        <lane id=":1_6_1" index="1" speed="13.89" length="20.80" shape="1990.40,2341.60 1969.60,2341.60"/>
    </edge>
    <edge id=":1_8" function="internal">
        <lane id=":1_8_0" index="0" speed="9.26" length="19.35" shape="1990.40,2341.60 1985.15,2340.85 1981.40,2338.60 1979.15,2334.85 1978.40,2329.60"/>
    </edge>
    <edge id=":1_9" function="internal">
        <lane id=":1_9_0" index="0" speed="3.65" length="4.67" shape="1990.40,2341.60 1989.20,2340.80 1988.80,2340.00 1989.20,2339.20 1990.40,2338.40"/>
    </edge>
    <edge id=":1_10" function="internal">
        <lane id=":1_10_0" index="0" speed="6.51" length="9.03" shape="1984.80,2329.60 1985.15,2332.05 1986.20,2333.80 1987.95,2334.85 1990.40,2335.20"/>
    </edge>
    <edge id=":1_11" function="internal">
        <lane id=":1_11_0" index="0" speed="13.89" length="20.80" shape="1984.80,2329.60 1984.80,2350.40"/>
        <lane id=":1_11_1" index="1" speed="13.89" length="20.80" shape="1981.60,2329.60 1981.60,2350.40"/>
    </edge>
    <edge id=":1_13" function="internal">
        <lane id=":1_13_0" index="0" speed="9.26" length="5.01" shape="1981.60,2329.60 1980.89,2334.56"/>
    </edge>
    <edge id=":1_14" function="internal">
        <lane id=":1_14_0" index="0" speed="3.65" length="1.44" shape="1981.60,2329.60 1980.80,2330.80"/>
    </edge>
    <edge id=":1_22" function="internal">
        <lane id=":1_22_0" index="0" speed="9.26" length="14.34" shape="1980.89,2334.56 1980.85,2334.85 1978.60,2338.60 1974.85,2340.85 1969.60,2341.60"/>
    </edge>
    <edge id=":1_23" function="internal">
        <lane id=":1_23_0" index="0" speed="3.65" length="3.23" shape="1980.80,2330.80 1980.00,2331.20 1979.20,2330.80 1978.40,2329.60"/>
    </edge>
    <edge id=":1_15" function="internal">
        <lane id=":1_15_0" index="0" speed="6.51" length="9.03" shape="1969.60,2335.20 1972.05,2334.85 1973.80,2333.80 1974.85,2332.05 1975.20,2329.60"/>
    </edge>
    <edge id=":1_16" function="internal">
        <lane id=":1_16_0" index="0" speed="13.89" length="20.80" shape="1969.60,2335.20 1990.40,2335.20"/>
        <lane id=":1_16_1" index="1" speed="13.89" length="20.80" shape="1969.60,2338.40 1990.40,2338.40"/>
    </edge>
    <edge id=":1_18" function="internal">
        <lane id=":1_18_0" index="0" speed="9.26" length="19.35" shape="1969.60,2338.40 1974.85,2339.15 1978.60,2341.40 1980.85,2345.15 1981.60,2350.40"/>
    </edge>
    <edge id=":1_19" function="internal">
        <lane id=":1_19_0" index="0" speed="3.65" length="4.67" shape="1969.60,2338.40 1970.80,2339.20 1971.20,2340.00 1970.80,2340.80 1969.60,2341.60"/>
    </edge>
    <edge id=":10_0" function="internal">
        <lane id=":10_0_0" index="0" speed="13.11" length="15.95" shape="1795.20,2350.40 1794.83,2346.35 1793.71,2342.60 1791.85,2339.17 1789.25,2336.04"/>
    </edge>
    <edge id=":10_1" function="internal">
        <lane id=":10_1_0" index="0" speed="13.89" length="32.13" shape="1795.20,2350.40 1796.57,2342.87 1800.13,2335.53 1805.01,2328.73 1810.36,2322.85"/>
        <lane id=":10_1_1" index="1" speed="13.89" length="29.67" shape="1798.40,2350.40 1799.29,2344.67 1801.96,2338.55 1806.40,2332.03 1812.62,2325.11"/>
    </edge>
    <edge id=":10_3" function="internal">
        <lane id=":10_3_0" index="0" speed="10.87" length="5.53" shape="1798.40,2350.40 1799.72,2345.15 1799.80,2345.07"/>
    </edge>
    <edge id=":10_4" function="internal">
        <lane id=":10_4_0" index="0" speed="3.65" length="1.44" shape="1798.40,2350.40 1799.20,2349.20"/>
    </edge>
    <edge id=":10_20" function="internal">
        <lane id=":10_20_0" index="0" speed="10.87" length="21.52" shape="1799.80,2345.07 1803.66,2341.40 1810.24,2339.15 1819.45,2338.40"/>
    </edge>
    <edge id=":10_21" function="internal">
        <lane id=":10_21_0" index="0" speed="3.65" length="3.23" shape="1799.20,2349.20 1800.00,2348.80 1800.80,2349.20 1801.60,2350.40"/>
    </edge>
    <edge id=":10_5" function="internal">
        <lane id=":10_5_0" index="0" speed="8.71" length="16.99" shape="1819.45,2344.80 1813.04,2345.15 1808.46,2346.20 1805.72,2347.95 1804.80,2350.40"/>
    </edge>
    <edge id=":10_6" function="internal">
        <lane id=":10_6_0" index="0" speed="13.89" length="32.13" shape="1819.45,2344.80 1811.51,2344.43 1803.25,2343.07 1795.55,2340.39 1789.25,2336.04"/>
        <lane id=":10_6_1" index="1" speed="13.89" length="29.67" shape="1819.45,2341.60 1810.16,2341.11 1802.41,2339.64 1796.19,2337.20 1791.51,2333.78"/>
    </edge>
    <edge id=":10_8" function="internal">
        <lane id=":10_8_0" index="0" speed="8.14" length="23.57" shape="1819.45,2341.60 1813.22,2340.01 1809.69,2335.99 1809.34,2330.65 1812.62,2325.11"/>
    </edge>
    <edge id=":10_9" function="internal">
        <lane id=":10_9_0" index="0" speed="3.65" length="4.67" shape="1819.45,2341.60 1818.25,2340.80 1817.85,2340.00 1818.25,2339.20 1819.45,2338.40"/>
    </edge>
    <edge id=":10_10" function="internal">
        <lane id=":10_10_0" index="0" speed="5.47" length="9.74" shape="1817.15,2329.64 1815.21,2332.07 1814.94,2333.81 1816.36,2334.85 1819.45,2335.20"/>
    </edge>
    <edge id=":10_11" function="internal">
        <lane id=":10_11_0" index="0" speed="13.89" length="24.99" shape="1817.15,2329.64 1812.24,2334.46 1808.32,2338.92 1805.74,2343.93 1804.80,2350.40"/>
        <lane id=":10_11_1" index="1" speed="13.89" length="27.16" shape="1814.89,2327.38 1809.07,2333.80 1804.92,2339.78 1802.43,2345.31 1801.60,2350.40"/>
    </edge>
    <edge id=":10_13" function="internal">
        <lane id=":10_13_0" index="0" speed="10.87" length="5.27" shape="1814.89,2327.38 1810.87,2330.79"/>
    </edge>
    <edge id=":10_14" function="internal">
        <lane id=":10_14_0" index="0" speed="3.65" length="1.44" shape="1814.89,2327.38 1813.47,2327.66"/>
    </edge>
    <edge id=":10_22" function="internal">
        <lane id=":10_22_0" index="0" speed="10.87" length="21.78" shape="1810.87,2330.79 1807.84,2333.36 1801.60,2336.42 1796.16,2336.56 1791.51,2333.78"/>
    </edge>
    <edge id=":10_23" function="internal">
        <lane id=":10_23_0" index="0" speed="3.65" length="3.23" shape="1813.47,2327.66 1812.62,2327.38 1812.34,2326.53 1812.62,2325.11"/>
    </edge>
    <edge id=":10_15" function="internal">
        <lane id=":10_15_0" index="0" speed="8.71" length="16.99" shape="1796.04,2329.25 1798.42,2330.34 1801.60,2329.63 1805.58,2327.14 1810.36,2322.85"/>
    </edge>
    <edge id=":10_16" function="internal">
        <lane id=":10_16_0" index="0" speed="13.89" length="24.66" shape="1796.04,2329.25 1799.73,2331.85 1804.87,2333.71 1811.44,2334.83 1819.45,2335.20"/>
        <lane id=":10_16_1" index="1" speed="13.89" length="27.16" shape="1793.78,2331.51 1797.96,2334.53 1803.64,2336.68 1810.80,2337.97 1819.45,2338.40"/>
    </edge>
    <edge id=":10_18" function="internal">
        <lane id=":10_18_0" index="0" speed="13.89" length="20.98" shape="1793.78,2331.51 1797.20,2335.63 1799.64,2340.15 1801.11,2345.07 1801.60,2350.40"/>
    </edge>
    <edge id=":10_19" function="internal">
        <lane id=":10_19_0" index="0" speed="3.65" length="4.67" shape="1793.78,2331.51 1794.06,2332.93 1793.78,2333.78 1792.93,2334.06 1791.51,2333.78"/>
    </edge>
    <edge id=":1090_0" function="internal">
        <lane id=":1090_0_0" index="0" speed="6.51" length="9.03" shape="1255.20,2530.40 1254.85,2527.95 1253.80,2526.20 1252.05,2525.15 1249.60,2524.80"/>
    </edge>
    <edge id=":1090_1" function="internal">
        <lane id=":1090_1_0" index="0" speed="13.89" length="20.80" shape="1255.20,2530.40 1255.20,2509.60"/>
        <lane id=":1090_1_1" index="1" speed="13.89" length="20.80" shape="1258.40,2530.40 1258.40,2509.60"/>
    </edge>
    <edge id=":1090_3" function="internal">
        <lane id=":1090_3_0" index="0" speed="9.26" length="19.35" shape="1258.40,2530.40 1259.15,2525.15 1261.40,2521.40 1265.15,2519.15 1270.40,2518.40"/>
    </edge>
    <edge id=":1090_4" function="internal">
        <lane id=":1090_4_0" index="0" speed="3.65" length="4.67" shape="1258.40,2530.40 1259.20,2529.20 1260.00,2528.80 1260.80,2529.20 1261.60,2530.40"/>
    </edge>
    <edge id=":1090_5" function="internal">
        <lane id=":1090_5_0" index="0" speed="6.51" length="9.03" shape="1270.40,2524.80 1267.95,2525.15 1266.20,2526.20 1265.15,2527.95 1264.80,2530.40"/>
    </edge>
    <edge id=":1090_6" function="internal">
        <lane id=":1090_6_0" index="0" speed="13.89" length="20.80" shape="1270.40,2524.80 1249.60,2524.80"/>
        <lane id=":1090_6_1" index="1" speed="13.89" length="20.80" shape="1270.40,2521.60 1249.60,2521.60"/>
    </edge>
    <edge id=":1090_8" function="internal">
        <lane id=":1090_8_0" index="0" speed="9.26" length="5.01" shape="1270.40,2521.60 1265.44,2520.89"/>
    </edge>
    <edge id=":1090_9" function="internal">
        <lane id=":1090_9_0" index="0" speed="3.65" length="1.44" shape="1270.40,2521.60 1269.20,2520.80"/>
    </edge>
    <edge id=":1090_20" function="internal">
        <lane id=":1090_20_0" index="0" speed="9.26" length="14.34" shape="1265.44,2520.89 1265.15,2520.85 1261.40,2518.60 1259.15,2514.85 1258.40,2509.60"/>
    </edge>
    <edge id=":1090_21" function="internal">
        <lane id=":1090_21_0" index="0" speed="3.65" length="3.23" shape="1269.20,2520.80 1268.80,2520.00 1269.20,2519.20 1270.40,2518.40"/>
    </edge>
    <edge id=":1090_10" function="internal">
        <lane id=":1090_10_0" index="0" speed="6.51" length="9.03" shape="1264.80,2509.60 1265.15,2512.05 1266.20,2513.80 1267.95,2514.85 1270.40,2515.20"/>
    </edge>
    <edge id=":1090_11" function="internal">
        <lane id=":1090_11_0" index="0" speed="13.89" length="20.80" shape="1264.80,2509.60 1264.80,2530.40"/>
        <lane id=":1090_11_1" index="1" speed="13.89" length="20.80" shape="1261.60,2509.60 1261.60,2530.40"/>
    </edge>
    <edge id=":1090_13" function="internal">
        <lane id=":1090_13_0" index="0" speed="9.26" length="19.35" shape="1261.60,2509.60 1260.85,2514.85 1258.60,2518.60 1254.85,2520.85 1249.60,2521.60"/>
    </edge>
    <edge id=":1090_14" function="internal">
        <lane id=":1090_14_0" index="0" speed="3.65" length="4.67" shape="1261.60,2509.60 1260.80,2510.80 1260.00,2511.20 1259.20,2510.80 1258.40,2509.60"/>
    </edge>
    <edge id=":1090_15" function="internal">
        <lane id=":1090_15_0" index="0" speed="6.51" length="9.03" shape="1249.60,2515.20 1252.05,2514.85 1253.80,2513.80 1254.85,2512.05 1255.20,2509.60"/>
    </edge>
    <edge id=":1090_16" function="internal">
        <lane id=":1090_16_0" index="0" speed="13.89" length="20.80" shape="1249.60,2515.20 1270.40,2515.20"/>
        <lane id=":1090_16_1" index="1" speed="13.89" length="20.80" shape="1249.60,2518.40 1270.40,2518.40"/>
    </edge>
    <edge id=":1090_18" function="internal">
        <lane id=":1090_18_0" index="0" speed="9.26" length="5.01" shape="1249.60,2518.40 1254.56,2519.11"/>
    </edge>
    <edge id=":1090_19" function="internal">
        <lane id=":1090_19_0" index="0" speed="3.65" length="1.44" shape="1249.60,2518.40 1250.80,2519.20"/>
    </edge>
    <edge id=":1090_22" function="internal">
        <lane id=":1090_22_0" index="0" speed="9.26" length="14.34" shape="1254.56,2519.11 1254.85,2519.15 1258.60,2521.40 1260.85,2525.15 1261.60,2530.40"/>
    </edge>
    <edge id=":1090_23" function="internal">
        <lane id=":1090_23_0" index="0" speed="3.65" length="3.23" shape="1250.80,2519.20 1251.20,2520.00 1250.80,2520.80 1249.60,2521.60"/>
    </edge>
    <edge id=":1096_0" function="internal">
        <lane id=":1096_0_0" index="0" speed="11.75" length="12.73" shape="1975.20,1630.40 1975.29,1626.61 1975.16,1623.88 1974.23,1621.48 1971.90,1618.69"/>
    </edge>
    <edge id=":1096_1" function="internal">
        <lane id=":1096_1_0" index="0" speed="9.26" length="5.16" shape="1978.40,1630.40 1979.13,1625.29"/>
    </edge>
    <edge id=":1096_2" function="internal">
        <lane id=":1096_2_0" index="0" speed="3.65" length="1.44" shape="1978.40,1630.40 1979.20,1629.20"/>
    </edge>
    <edge id=":1096_11" function="internal">
        <lane id=":1096_11_0" index="0" speed="9.26" length="14.19" shape="1979.13,1625.29 1979.15,1625.15 1981.40,1621.40 1985.15,1619.15 1990.40,1618.40"/>
    </edge>
    <edge id=":1096_12" function="internal">
        <lane id=":1096_12_0" index="0" speed="3.65" length="3.23" shape="1979.20,1629.20 1980.00,1628.80 1980.80,1629.20 1981.60,1630.40"/>
    </edge>
    <edge id=":1096_3" function="internal">
        <lane id=":1096_3_0" index="0" speed="6.51" length="9.03" shape="1990.40,1624.80 1987.95,1625.15 1986.20,1626.20 1985.15,1627.95 1984.80,1630.40"/>
    </edge>
    <edge id=":1096_4" function="internal">
        <lane id=":1096_4_0" index="0" speed="13.89" length="19.96" shape="1990.40,1624.80 1984.60,1624.42 1979.58,1623.27 1975.35,1621.36 1971.90,1618.69"/>
        <lane id=":1096_4_1" index="1" speed="13.70" length="17.45" shape="1990.40,1621.60 1985.24,1621.28 1980.81,1620.31 1977.12,1618.69 1974.17,1616.43"/>
    </edge>
    <edge id=":1096_6" function="internal">
        <lane id=":1096_6_0" index="0" speed="3.65" length="4.67" shape="1990.40,1621.60 1989.20,1620.80 1988.80,1620.00 1989.20,1619.20 1990.40,1618.40"/>
    </edge>
    <edge id=":1096_7" function="internal">
        <lane id=":1096_7_0" index="0" speed="11.62" length="12.44" shape="1978.69,1611.90 1980.66,1613.35 1983.27,1614.38 1986.51,1614.99 1990.40,1615.20"/>
        <lane id=":1096_7_1" index="1" speed="12.70" length="14.95" shape="1976.43,1614.17 1978.89,1616.02 1982.04,1617.34 1985.88,1618.14 1990.40,1618.40"/>
    </edge>
    <edge id=":1096_9" function="internal">
        <lane id=":1096_9_0" index="0" speed="13.84" length="17.82" shape="1976.43,1614.17 1979.78,1618.05 1981.27,1621.35 1981.64,1625.12 1981.60,1630.40"/>
    </edge>
    <edge id=":1096_10" function="internal">
        <lane id=":1096_10_0" index="0" speed="3.65" length="2.34" shape="1976.43,1614.17 1976.71,1615.58 1976.43,1616.43"/>
    </edge>
    <edge id=":1096_13" function="internal">
        <lane id=":1096_13_0" index="0" speed="3.65" length="2.34" shape="1976.43,1616.43 1975.58,1616.71 1974.17,1616.43"/>
    </edge>
    <edge id=":1099_0" function="internal">
        <lane id=":1099_0_0" index="0" speed="6.51" length="9.03" shape="1795.20,1270.40 1794.85,1267.95 1793.80,1266.20 1792.05,1265.15 1789.60,1264.80"/>
    </edge>
    <edge id=":1099_1" function="internal">
        <lane id=":1099_1_0" index="0" speed="13.89" length="20.80" shape="1795.20,1270.40 1795.20,1249.60"/>
        <lane id=":1099_1_1" index="1" speed="13.89" length="20.80" shape="1798.40,1270.40 1798.40,1249.60"/>
    </edge>
    <edge id=":1099_3" function="internal">
        <lane id=":1099_3_0" index="0" speed="3.65" length="1.44" shape="1798.40,1270.40 1799.20,1269.20"/>
    </edge>
    <edge id=":1099_11" function="internal">
        <lane id=":1099_11_0" index="0" speed="3.65" length="3.23" shape="1799.20,1269.20 1800.00,1268.80 1800.80,1269.20 1801.60,1270.40"/>
    </edge>
    <edge id=":1099_4" function="internal">
        <lane id=":1099_4_0" index="0" speed="13.89" length="20.80" shape="1804.80,1249.60 1804.80,1270.40"/>
        <lane id=":1099_4_1" index="1" speed="13.89" length="20.80" shape="1801.60,1249.60 1801.60,1270.40"/>
    </edge>
    <edge id=":1099_6" function="internal">
        <lane id=":1099_6_0" index="0" speed="9.26" length="5.01" shape="1801.60,1249.60 1800.89,1254.56"/>
    </edge>
    <edge id=":1099_7" function="internal">
        <lane id=":1099_7_0" index="0" speed="3.65" length="1.44" shape="1801.60,1249.60 1800.80,1250.80"/>
    </edge>
    <edge id=":1099_12" function="internal">
        <lane id=":1099_12_0" index="0" speed="9.26" length="14.34" shape="1800.89,1254.56 1800.85,1254.85 1798.60,1258.60 1794.85,1260.85 1789.60,1261.60"/>
    </edge>
    <edge id=":1099_13" function="internal">
        <lane id=":1099_13_0" index="0" speed="3.65" length="3.23" shape="1800.80,1250.80 1800.00,1251.20 1799.20,1250.80 1798.40,1249.60"/>
    </edge>
    <edge id=":1099_8" function="internal">
        <lane id=":1099_8_0" index="0" speed="6.51" length="9.03" shape="1789.60,1255.20 1792.05,1254.85 1793.80,1253.80 1794.85,1252.05 1795.20,1249.60"/>
    </edge>
    <edge id=":1099_9" function="internal">
        <lane id=":1099_9_0" index="0" speed="9.26" length="19.35" shape="1789.60,1258.40 1794.85,1259.15 1798.60,1261.40 1800.85,1265.15 1801.60,1270.40"/>
    </edge>
    <edge id=":1099_10" function="internal">
        <lane id=":1099_10_0" index="0" speed="3.65" length="4.67" shape="1789.60,1258.40 1790.80,1259.20 1791.20,1260.00 1790.80,1260.80 1789.60,1261.60"/>
    </edge>
    <edge id=":1102_0" function="internal">
        <lane id=":1102_0_0" index="0" speed="13.89" length="21.30" shape="1255.20,1626.65 1254.43,1623.84 1252.11,1620.07 1248.25,1615.33 1242.85,1609.64"/>
    </edge>
    <edge id=":1102_1" function="internal">
        <lane id=":1102_1_0" index="0" speed="13.89" length="26.10" shape="1255.20,1626.65 1255.20,1600.55"/>
        <lane id=":1102_1_1" index="1" speed="13.89" length="26.10" shape="1258.40,1626.65 1258.40,1600.55"/>
    </edge>
    <edge id=":1102_3" function="internal">
        <lane id=":1102_3_0" index="0" speed="3.65" length="1.44" shape="1258.40,1626.65 1259.20,1625.45"/>
    </edge>
    <edge id=":1102_11" function="internal">
        <lane id=":1102_11_0" index="0" speed="3.65" length="3.23" shape="1259.20,1625.45 1260.00,1625.05 1260.80,1625.45 1261.60,1626.65"/>
    </edge>
    <edge id=":1102_4" function="internal">
        <lane id=":1102_4_0" index="0" speed="13.89" length="26.10" shape="1264.80,1600.55 1264.80,1626.65"/>
        <lane id=":1102_4_1" index="1" speed="13.89" length="26.10" shape="1261.60,1600.55 1261.60,1626.65"/>
    </edge>
    <edge id=":1102_6" function="internal">
        <lane id=":1102_6_0" index="0" speed="8.14" length="2.95" shape="1261.60,1600.55 1260.87,1603.40"/>
    </edge>
    <edge id=":1102_7" function="internal">
        <lane id=":1102_7_0" index="0" speed="3.65" length="1.44" shape="1261.60,1600.55 1260.80,1601.75"/>
    </edge>
    <edge id=":1102_12" function="internal">
        <lane id=":1102_12_0" index="0" speed="8.14" length="20.62" shape="1260.87,1603.40 1260.01,1606.78 1255.99,1610.31 1250.65,1610.66 1245.11,1607.38"/>
    </edge>
    <edge id=":1102_13" function="internal">
        <lane id=":1102_13_0" index="0" speed="3.65" length="3.23" shape="1260.80,1601.75 1260.00,1602.15 1259.20,1601.75 1258.40,1600.55"/>
    </edge>
    <edge id=":1102_8" function="internal">
        <lane id=":1102_8_0" index="0" speed="5.47" length="9.74" shape="1249.64,1602.85 1252.07,1604.79 1253.81,1605.06 1254.85,1603.64 1255.20,1600.55"/>
    </edge>
    <edge id=":1102_9" function="internal">
        <lane id=":1102_9_0" index="0" speed="13.89" length="26.26" shape="1247.38,1605.11 1253.60,1611.79 1258.04,1617.61 1260.71,1622.56 1261.60,1626.65"/>
    </edge>
    <edge id=":1102_10" function="internal">
        <lane id=":1102_10_0" index="0" speed="3.65" length="4.67" shape="1247.38,1605.11 1247.66,1606.53 1247.38,1607.38 1246.53,1607.66 1245.11,1607.38"/>
    </edge>
    <edge id=":1108_0" function="internal">
        <lane id=":1108_0_0" index="0" speed="13.89" length="24.66" shape="1090.36,1457.15 1084.43,1451.75 1079.00,1447.89 1074.05,1445.57 1069.60,1444.80"/>
    </edge>
    <edge id=":1108_1" function="internal">
        <lane id=":1108_1_0" index="0" speed="13.89" length="32.17" shape="1090.36,1457.15 1083.73,1449.74 1078.99,1442.68 1076.15,1435.97 1075.20,1429.60"/>
        <lane id=":1108_1_1" index="1" speed="13.89" length="29.67" shape="1092.62,1454.89 1086.40,1447.97 1081.96,1441.45 1079.29,1435.33 1078.40,1429.60"/>
    </edge>
    <edge id=":1108_3" function="internal">
        <lane id=":1108_3_0" index="0" speed="8.14" length="23.57" shape="1092.62,1454.89 1089.34,1449.35 1089.69,1444.01 1093.22,1439.99 1099.45,1438.40"/>
    </edge>
    <edge id=":1108_4" function="internal">
        <lane id=":1108_4_0" index="0" speed="3.65" length="4.67" shape="1092.62,1454.89 1092.34,1453.47 1092.62,1452.62 1093.47,1452.34 1094.89,1452.62"/>
    </edge>
    <edge id=":1108_5" function="internal">
        <lane id=":1108_5_0" index="0" speed="5.47" length="9.74" shape="1099.45,1444.80 1096.36,1445.15 1094.94,1446.19 1095.21,1447.93 1097.15,1450.36"/>
    </edge>
    <edge id=":1108_6" function="internal">
        <lane id=":1108_6_0" index="0" speed="13.89" length="29.85" shape="1099.45,1444.80 1069.60,1444.80"/>
        <lane id=":1108_6_1" index="1" speed="13.89" length="29.85" shape="1099.45,1441.60 1069.60,1441.60"/>
    </edge>
    <edge id=":1108_8" function="internal">
        <lane id=":1108_8_0" index="0" speed="10.87" length="8.66" shape="1099.45,1441.60 1090.82,1440.90"/>
    </edge>
    <edge id=":1108_9" function="internal">
        <lane id=":1108_9_0" index="0" speed="3.65" length="1.44" shape="1099.45,1441.60 1098.25,1440.80"/>
    </edge>
    <edge id=":1108_20" function="internal">
        <lane id=":1108_20_0" index="0" speed="10.87" length="18.39" shape="1090.82,1440.90 1090.24,1440.85 1083.66,1438.60 1079.72,1434.85 1078.40,1429.60"/>
    </edge>
    <edge id=":1108_21" function="internal">
        <lane id=":1108_21_0" index="0" speed="3.65" length="3.23" shape="1098.25,1440.80 1097.85,1440.00 1098.25,1439.20 1099.45,1438.40"/>
    </edge>
    <edge id=":1108_10" function="internal">
        <lane id=":1108_10_0" index="0" speed="8.71" length="16.99" shape="1084.80,1429.60 1085.72,1432.05 1088.46,1433.80 1093.04,1434.85 1099.45,1435.20"/>
    </edge>
    <edge id=":1108_11" function="internal">
        <lane id=":1108_11_0" index="0" speed="13.89" length="24.66" shape="1084.80,1429.60 1085.57,1434.05 1087.89,1439.00 1091.75,1444.43 1097.15,1450.36"/>
        <lane id=":1108_11_1" index="1" speed="13.89" length="27.16" shape="1081.60,1429.60 1082.43,1434.69 1084.92,1440.22 1089.07,1446.20 1094.89,1452.62"/>
    </edge>
    <edge id=":1108_13" function="internal">
        <lane id=":1108_13_0" index="0" speed="9.26" length="19.35" shape="1081.60,1429.60 1080.85,1434.85 1078.60,1438.60 1074.85,1440.85 1069.60,1441.60"/>
    </edge>
    <edge id=":1108_14" function="internal">
        <lane id=":1108_14_0" index="0" speed="3.65" length="4.67" shape="1081.60,1429.60 1080.80,1430.80 1080.00,1431.20 1079.20,1430.80 1078.40,1429.60"/>
    </edge>
    <edge id=":1108_15" function="internal">
        <lane id=":1108_15_0" index="0" speed="6.51" length="9.03" shape="1069.60,1435.20 1072.05,1434.85 1073.80,1433.80 1074.85,1432.05 1075.20,1429.60"/>
    </edge>
    <edge id=":1108_16" function="internal">
        <lane id=":1108_16_0" index="0" speed="13.89" length="29.85" shape="1069.60,1435.20 1099.45,1435.20"/>
        <lane id=":1108_16_1" index="1" speed="13.89" length="29.85" shape="1069.60,1438.40 1099.45,1438.40"/>
    </edge>
    <edge id=":1108_18" function="internal">
        <lane id=":1108_18_0" index="0" speed="13.89" length="4.63" shape="1069.60,1438.40 1074.18,1439.11"/>
    </edge>
    <edge id=":1108_19" function="internal">
        <lane id=":1108_19_0" index="0" speed="3.65" length="1.44" shape="1069.60,1438.40 1070.80,1439.20"/>
    </edge>
    <edge id=":1108_22" function="internal">
        <lane id=":1108_22_0" index="0" speed="13.89" length="25.03" shape="1074.18,1439.11 1075.33,1439.29 1081.45,1441.96 1087.97,1446.40 1094.89,1452.62"/>
    </edge>
    <edge id=":1108_23" function="internal">
        <lane id=":1108_23_0" index="0" speed="3.65" length="3.23" shape="1070.80,1439.20 1071.20,1440.00 1070.80,1440.80 1069.60,1441.60"/>
    </edge>
    <edge id=":1116_0" function="internal">
        <lane id=":1116_0_0" index="0" speed="5.47" length="9.74" shape="1255.20,2359.45 1254.85,2356.36 1253.81,2354.94 1252.07,2355.21 1249.64,2357.15"/>
    </edge>
    <edge id=":1116_1" function="internal">
        <lane id=":1116_1_0" index="0" speed="13.89" length="26.10" shape="1255.20,2359.45 1255.20,2333.35"/>
        <lane id=":1116_1_1" index="1" speed="13.89" length="26.10" shape="1258.40,2359.45 1258.40,2333.35"/>
    </edge>
    <edge id=":1116_3" function="internal">
        <lane id=":1116_3_0" index="0" speed="3.65" length="1.44" shape="1258.40,2359.45 1259.20,2358.25"/>
    </edge>
    <edge id=":1116_11" function="internal">
        <lane id=":1116_11_0" index="0" speed="3.65" length="3.23" shape="1259.20,2358.25 1260.00,2357.85 1260.80,2358.25 1261.60,2359.45"/>
    </edge>
    <edge id=":1116_4" function="internal">
        <lane id=":1116_4_0" index="0" speed="13.89" length="26.10" shape="1264.80,2333.35 1264.80,2359.45"/>
        <lane id=":1116_4_1" index="1" speed="13.89" length="26.10" shape="1261.60,2333.35 1261.60,2359.45"/>
    </edge>
    <edge id=":1116_6" function="internal">
        <lane id=":1116_6_0" index="0" speed="13.89" length="3.90" shape="1261.60,2333.35 1260.88,2337.19"/>
    </edge>
    <edge id=":1116_7" function="internal">
        <lane id=":1116_7_0" index="0" speed="3.65" length="1.44" shape="1261.60,2333.35 1260.80,2334.55"/>
    </edge>
    <edge id=":1116_12" function="internal">
        <lane id=":1116_12_0" index="0" speed="13.89" length="22.73" shape="1260.88,2337.19 1260.37,2339.94 1257.14,2345.22 1252.58,2349.94 1247.38,2354.89"/>
    </edge>
    <edge id=":1116_13" function="internal">
        <lane id=":1116_13_0" index="0" speed="3.65" length="3.23" shape="1260.80,2334.55 1260.00,2334.95 1259.20,2334.55 1258.40,2333.35"/>
    </edge>
    <edge id=":1116_8" function="internal">
        <lane id=":1116_8_0" index="0" speed="13.89" length="21.30" shape="1242.85,2350.36 1248.25,2344.67 1252.11,2339.93 1254.43,2336.16 1255.20,2333.35"/>
    </edge>
    <edge id=":1116_9" function="internal">
        <lane id=":1116_9_0" index="0" speed="8.14" length="23.57" shape="1245.11,2352.62 1250.65,2349.34 1255.99,2349.69 1260.01,2353.22 1261.60,2359.45"/>
    </edge>
    <edge id=":1116_10" function="internal">
        <lane id=":1116_10_0" index="0" speed="3.65" length="4.67" shape="1245.11,2352.62 1246.53,2352.34 1247.38,2352.62 1247.66,2353.47 1247.38,2354.89"/>
    </edge>
    <edge id=":1226_0" function="internal">
        <lane id=":1226_0_0" index="0" speed="13.89" length="22.01" shape="1255.20,2706.65 1254.26,2700.77 1251.68,2697.05 1247.76,2693.87 1242.85,2689.64"/>
    </edge>
    <edge id=":1226_1" function="internal">
        <lane id=":1226_1_0" index="0" speed="13.89" length="26.10" shape="1255.20,2706.65 1255.20,2680.55"/>
        <lane id=":1226_1_1" index="1" speed="13.89" length="26.10" shape="1258.40,2706.65 1258.40,2680.55"/>
    </edge>