<?xml version="1.0" encoding="UTF-8"?>

<!-- generated on 2025-10-21 11:22:42 by Eclipse SUMO netgenerate Version 1.24.0
<netgenerateConfiguration xmlns:xsi="http://www.w3.org/2001/XMLSchema-instance" xsi:noNamespaceSchemaLocation="http://sumo.dlr.de/xsd/netgenerateConfiguration.xsd">

    <grid_network>
        <grid value="false"/>
        <grid.number value="8"/>
        <grid.length value="180.00"/>
        <grid.x-number value="8"/>
        <grid.y-number value="8"/>
        <grid.x-length value="200.00"/>
        <grid.y-length value="200.00"/>
    </grid_network>

    <spider_network>
        <spider value="false"/>
        <spider.omit-center value="true"/>
    </spider_network>

    <random_network>
        <rand value="true"/>
        <rand.iterations value="180"/>
        <rand.max-distance value="350.00"/>
        <rand.min-distance value="180.00"/>
        <rand.min-angle value="90.00"/>
        <rand.grid value="true"/>
    </random_network>

    <output>
        <output-file value="D:\Codes\Projects\Traffic-Light-Automation\n2.net.xml"/>
    </output>

    <building_defaults>
        <default.lanenumber value="2"/>
        <default.spreadtype value="right"/>
    </building_defaults>

    <tls_building>
        <tls.green.time value="30"/>
    </tls_building>

    <bicycle>
        <bikelanes.guess value="false"/>
    </bicycle>

</netgenerateConfiguration>
-->

<net version="1.20" junctionCornerDetail="5" limitTurnSpeed="5.50" xmlns:xsi="http://www.w3.org/2001/XMLSchema-instance" xsi:noNamespaceSchemaLocation="http://sumo.dlr.de/xsd/net_file.xsd">

    <location netOffset="1260.00,2160.00" convBoundary="0.00,0.00,3240.00,3780.00" origBoundary="-1260.00,-2160.00,1980.00,1620.00" projParameter="!"/>

    <edge id=":1_0" function="internal">
        <lane id=":1_0_0" index="0" speed="6.51" length="9.03" shape="1255.20,2170.40 1254.85,2167.95 1253.80,2166.20 1252.05,2165.15 1249.60,2164.80"/>
    </edge>
    <edge id=":1_1" function="internal">
        <lane id=":1_1_0" index="0" speed="13.89" length="20.80" shape="1255.20,2170.40 1255.20,2149.60"/>
        <lane id=":1_1_1" index="1" speed="13.89" length="20.80" shape="1258.40,2170.40 1258.40,2149.60"/>
    </edge>
    <edge id=":1_3" function="internal">
        <lane id=":1_3_0" index="0" speed="9.26" length="5.01" shape="1258.40,2170.40 1259.11,2165.44"/>
    </edge>
    <edge id=":1_4" function="internal">
        <lane id=":1_4_0" index="0" speed="3.65" length="1.44" shape="1258.40,2170.40 1259.20,2169.20"/>
    </edge>
    <edge id=":1_20" function="internal">
        <lane id=":1_20_0" index="0" speed="9.26" length="14.34" shape="1259.11,2165.44 1259.15,2165.15 1261.40,2161.40 1265.15,2159.15 1270.40,2158.40"/>
    </edge>
    <edge id=":1_21" function="internal">
        <lane id=":1_21_0" index="0" speed="3.65" length="3.23" shape="1259.20,2169.20 1260.00,2168.80 1260.80,2169.20 1261.60,2170.40"/>
    </edge>
    <edge id=":1_5" function="internal">
        <lane id=":1_5_0" index="0" speed="6.51" length="9.03" shape="1270.40,2164.80 1267.95,2165.15 1266.20,2166.20 1265.15,2167.95 1264.80,2170.40"/>
    </edge>
    <edge id=":1_6" function="internal">
        <lane id=":1_6_0" index="0" speed="13.89" length="20.80" shape="1270.40,2164.80 1249.60,2164.80"/>
        <lane id=":1_6_1" index="1" speed="13.89" length="20.80" shape="1270.40,2161.60 1249.60,2161.60"/>
    </edge>
    <edge id=":1_8" function="internal">
        <lane id=":1_8_0" index="0" speed="9.26" length="19.35" shape="1270.40,2161.60 1265.15,2160.85 1261.40,2158.60 1259.15,2154.85 1258.40,2149.60"/>
    </edge>
    <edge id=":1_9" function="internal">
        <lane id=":1_9_0" index="0" speed="3.65" length="4.67" shape="1270.40,2161.60 1269.20,2160.80 1268.80,2160.00 1269.20,2159.20 1270.40,2158.40"/>
    </edge>
    <edge id=":1_10" function="internal">
        <lane id=":1_10_0" index="0" speed="6.51" length="9.03" shape="1264.80,2149.60 1265.15,2152.05 1266.20,2153.80 1267.95,2154.85 1270.40,2155.20"/>
    </edge>
    <edge id=":1_11" function="internal">
        <lane id=":1_11_0" index="0" speed="13.89" length="20.80" shape="1264.80,2149.60 1264.80,2170.40"/>
        <lane id=":1_11_1" index="1" speed="13.89" length="20.80" shape="1261.60,2149.60 1261.60,2170.40"/>
    </edge>
    <edge id=":1_13" function="internal">
        <lane id=":1_13_0" index="0" speed="9.26" length="5.01" shape="1261.60,2149.60 1260.89,2154.56"/>
    </edge>
    <edge id=":1_14" function="internal">
        <lane id=":1_14_0" index="0" speed="3.65" length="1.44" shape="1261.60,2149.60 1260.80,2150.80"/>
    </edge>
    <edge id=":1_22" function="internal">
        <lane id=":1_22_0" index="0" speed="9.26" length="14.34" shape="1260.89,2154.56 1260.85,2154.85 1258.60,2158.60 1254.85,2160.85 1249.60,2161.60"/>
    </edge>
    <edge id=":1_23" function="internal">
        <lane id=":1_23_0" index="0" speed="3.65" length="3.23" shape="1260.80,2150.80 1260.00,2151.20 1259.20,2150.80 1258.40,2149.60"/>
    </edge>
    <edge id=":1_15" function="internal">
        <lane id=":1_15_0" index="0" speed="6.51" length="9.03" shape="1249.60,2155.20 1252.05,2154.85 1253.80,2153.80 1254.85,2152.05 1255.20,2149.60"/>
    </edge>
    <edge id=":1_16" function="internal">
        <lane id=":1_16_0" index="0" speed="13.89" length="20.80" shape="1249.60,2155.20 1270.40,2155.20"/>
        <lane id=":1_16_1" index="1" speed="13.89" length="20.80" shape="1249.60,2158.40 1270.40,2158.40"/>
    </edge>
    <edge id=":1_18" function="internal">
        <lane id=":1_18_0" index="0" speed="9.26" length="19.35" shape="1249.60,2158.40 1254.85,2159.15 1258.60,2161.40 1260.85,2165.15 1261.60,2170.40"/>
    </edge>
    <edge id=":1_19" function="internal">
        <lane id=":1_19_0" index="0" speed="3.65" length="4.67" shape="1249.60,2158.40 1250.80,2159.20 1251.20,2160.00 1250.80,2160.80 1249.60,2161.60"/>
    </edge>
    <edge id=":10_0" function="internal">
        <lane id=":10_0_0" index="0" speed="13.89" length="0.10" shape="1080.00,2164.80 1080.00,2164.80"/>
        <lane id=":10_0_1" index="1" speed="13.89" length="0.10" shape="1080.00,2161.60 1080.00,2161.60"/>
    </edge>
    <edge id=":10_2" function="internal">
        <lane id=":10_2_0" index="0" speed="13.89" length="0.10" shape="1080.00,2155.20 1080.00,2155.20"/>
        <lane id=":10_2_1" index="1" speed="13.89" length="0.10" shape="1080.00,2158.40 1080.00,2158.40"/>
    </edge>
    <edge id=":1009_0" function="internal">
        <lane id=":1009_0_0" index="0" speed="6.51" length="9.03" shape="1255.20,2710.40 1254.85,2707.95 1253.80,2706.20 1252.05,2705.15 1249.60,2704.80"/>
    </edge>
    <edge id=":1009_1" function="internal">
        <lane id=":1009_1_0" index="0" speed="13.89" length="20.80" shape="1255.20,2710.40 1255.20,2689.60"/>
        <lane id=":1009_1_1" index="1" speed="13.89" length="20.80" shape="1258.40,2710.40 1258.40,2689.60"/>
    </edge>
    <edge id=":1009_3" function="internal">
        <lane id=":1009_3_0" index="0" speed="9.26" length="5.01" shape="1258.40,2710.40 1259.11,2705.44"/>
    </edge>
    <edge id=":1009_4" function="internal">
        <lane id=":1009_4_0" index="0" speed="3.65" length="1.44" shape="1258.40,2710.40 1259.20,2709.20"/>
    </edge>
    <edge id=":1009_20" function="internal">
        <lane id=":1009_20_0" index="0" speed="9.26" length="14.34" shape="1259.11,2705.44 1259.15,2705.15 1261.40,2701.40 1265.15,2699.15 1270.40,2698.40"/>
    </edge>
    <edge id=":1009_21" function="internal">
        <lane id=":1009_21_0" index="0" speed="3.65" length="3.23" shape="1259.20,2709.20 1260.00,2708.80 1260.80,2709.20 1261.60,2710.40"/>
    </edge>
    <edge id=":1009_5" function="internal">
        <lane id=":1009_5_0" index="0" speed="6.51" length="9.03" shape="1270.40,2704.80 1267.95,2705.15 1266.20,2706.20 1265.15,2707.95 1264.80,2710.40"/>
    </edge>
    <edge id=":1009_6" function="internal">
        <lane id=":1009_6_0" index="0" speed="13.89" length="20.80" shape="1270.40,2704.80 1249.60,2704.80"/>
        <lane id=":1009_6_1" index="1" speed="13.89" length="20.80" shape="1270.40,2701.60 1249.60,2701.60"/>
    </edge>
    <edge id=":1009_8" function="internal">
        <lane id=":1009_8_0" index="0" speed="9.26" length="19.35" shape="1270.40,2701.60 1265.15,2700.85 1261.40,2698.60 1259.15,2694.85 1258.40,2689.60"/>
    </edge>
    <edge id=":1009_9" function="internal">
        <lane id=":1009_9_0" index="0" speed="3.65" length="4.67" shape="1270.40,2701.60 1269.20,2700.80 1268.80,2700.00 1269.20,2699.20 1270.40,2698.40"/>
    </edge>
    <edge id=":1009_10" function="internal">
        <lane id=":1009_10_0" index="0" speed="6.51" length="9.03" shape="1264.80,2689.60 1265.15,2692.05 1266.20,2693.80 1267.95,2694.85 1270.40,2695.20"/>
    </edge>
    <edge id=":1009_11" function="internal">
        <lane id=":1009_11_0" index="0" speed="13.89" length="20.80" shape="1264.80,2689.60 1264.80,2710.40"/>
        <lane id=":1009_11_1" index="1" speed="13.89" length="20.80" shape="1261.60,2689.60 1261.60,2710.40"/>
    </edge>
    <edge id=":1009_13" function="internal">
        <lane id=":1009_13_0" index="0" speed="9.26" length="5.01" shape="1261.60,2689.60 1260.89,2694.56"/>
    </edge>
    <edge id=":1009_14" function="internal">
        <lane id=":1009_14_0" index="0" speed="3.65" length="1.44" shape="1261.60,2689.60 1260.80,2690.80"/>
    </edge>
    <edge id=":1009_22" function="internal">
        <lane id=":1009_22_0" index="0" speed="9.26" length="14.34" shape="1260.89,2694.56 1260.85,2694.85 1258.60,2698.60 1254.85,2700.85 1249.60,2701.60"/>
    </edge>
    <edge id=":1009_23" function="internal">
        <lane id=":1009_23_0" index="0" speed="3.65" length="3.23" shape="1260.80,2690.80 1260.00,2691.20 1259.20,2690.80 1258.40,2689.60"/>
    </edge>
    <edge id=":1009_15" function="internal">
        <lane id=":1009_15_0" index="0" speed="6.51" length="9.03" shape="1249.60,2695.20 1252.05,2694.85 1253.80,2693.80 1254.85,2692.05 1255.20,2689.60"/>
    </edge>
    <edge id=":1009_16" function="internal">
        <lane id=":1009_16_0" index="0" speed="13.89" length="20.80" shape="1249.60,2695.20 1270.40,2695.20"/>
        <lane id=":1009_16_1" index="1" speed="13.89" length="20.80" shape="1249.60,2698.40 1270.40,2698.40"/>
    </edge>
    <edge id=":1009_18" function="internal">
        <lane id=":1009_18_0" index="0" speed="9.26" length="19.35" shape="1249.60,2698.40 1254.85,2699.15 1258.60,2701.40 1260.85,2705.15 1261.60,2710.40"/>
    </edge>
    <edge id=":1009_19" function="internal">
        <lane id=":1009_19_0" index="0" speed="3.65" length="4.67" shape="1249.60,2698.40 1250.80,2699.20 1251.20,2700.00 1250.80,2700.80 1249.60,2701.60"/>
    </edge>
    <edge id=":1032_0" function="internal">
        <lane id=":1032_0_0" index="0" speed="11.62" length="12.44" shape="1075.20,2710.40 1074.99,2706.51 1074.38,2703.27 1073.35,2700.66 1071.90,2698.69"/>
    </edge>
    <edge id=":1032_1" function="internal">
        <lane id=":1032_1_0" index="0" speed="9.26" length="3.51" shape="1078.40,2710.40 1078.90,2706.93"/>
    </edge>
    <edge id=":1032_2" function="internal">
        <lane id=":1032_2_0" index="0" speed="3.65" length="1.44" shape="1078.40,2710.40 1079.20,2709.20"/>
    </edge>
    <edge id=":1032_11" function="internal">
        <lane id=":1032_11_0" index="0" speed="9.26" length="15.84" shape="1078.90,2706.93 1079.15,2705.15 1081.40,2701.40 1085.15,2699.15 1090.40,2698.40"/>
    </edge>
    <edge id=":1032_12" function="internal">
        <lane id=":1032_12_0" index="0" speed="3.65" length="3.23" shape="1079.20,2709.20 1080.00,2708.80 1080.80,2709.20 1081.60,2710.40"/>
    </edge>
    <edge id=":1032_3" function="internal">
        <lane id=":1032_3_0" index="0" speed="6.51" length="9.03" shape="1090.40,2704.80 1087.95,2705.15 1086.20,2706.20 1085.15,2707.95 1084.80,2710.40"/>
    </edge>
    <edge id=":1032_4" function="internal">
        <lane id=":1032_4_0" index="0" speed="13.89" length="19.96" shape="1090.40,2704.80 1084.60,2704.42 1079.58,2703.27 1075.35,2701.36 1071.90,2698.69"/>
        <lane id=":1032_4_1" index="1" speed="13.84" length="17.82" shape="1090.40,2701.60 1085.12,2701.64 1081.35,2701.27 1078.05,2699.78 1074.17,2696.43"/>
    </edge>
    <edge id=":1032_6" function="internal">
        <lane id=":1032_6_0" index="0" speed="3.65" length="4.67" shape="1090.40,2701.60 1089.20,2700.80 1088.80,2700.00 1089.20,2699.20 1090.40,2698.40"/>
    </edge>
    <edge id=":1032_7" function="internal">
        <lane id=":1032_7_0" index="0" speed="11.75" length="12.73" shape="1078.69,2691.90 1081.48,2694.23 1083.88,2695.16 1086.61,2695.29 1090.40,2695.20"/>
        <lane id=":1032_7_1" index="1" speed="12.70" length="14.95" shape="1076.43,2694.17 1078.89,2696.02 1082.04,2697.34 1085.88,2698.14 1090.40,2698.40"/>
    </edge>
    <edge id=":1032_9" function="internal">
        <lane id=":1032_9_0" index="0" speed="13.70" length="17.45" shape="1076.43,2694.17 1078.69,2697.12 1080.31,2700.81 1081.28,2705.24 1081.60,2710.40"/>
    </edge>
    <edge id=":1032_10" function="internal">
        <lane id=":1032_10_0" index="0" speed="3.65" length="2.34" shape="1076.43,2694.17 1076.71,2695.58 1076.43,2696.43"/>
    </edge>
    <edge id=":1032_13" function="internal">
        <lane id=":1032_13_0" index="0" speed="3.65" length="2.34" shape="1076.43,2696.43 1075.58,2696.71 1074.17,2696.43"/>
    </edge>
    <edge id=":1034_0" function="internal">
        <lane id=":1034_0_0" index="0" speed="13.89" length="20.80" shape="1270.40,2884.80 1249.60,2884.80"/>
        <lane id=":1034_0_1" index="1" speed="13.89" length="20.80" shape="1270.40,2881.60 1249.60,2881.60"/>
    </edge>
    <edge id=":1034_2" function="internal">
        <lane id=":1034_2_0" index="0" speed="9.26" length="5.01" shape="1270.40,2881.60 1265.44,2880.89"/>
    </edge>
    <edge id=":1034_3" function="internal">
        <lane id=":1034_3_0" index="0" speed="3.65" length="1.44" shape="1270.40,2881.60 1269.20,2880.80"/>
    </edge>
    <edge id=":1034_11" function="internal">
        <lane id=":1034_11_0" index="0" speed="9.26" length="14.34" shape="1265.44,2880.89 1265.15,2880.85 1261.40,2878.60 1259.15,2874.85 1258.40,2869.60"/>
    </edge>
    <edge id=":1034_12" function="internal">
        <lane id=":1034_12_0" index="0" speed="3.65" length="3.23" shape="1269.20,2880.80 1268.80,2880.00 1269.20,2879.20 1270.40,2878.40"/>
    </edge>
    <edge id=":1034_4" function="internal">
        <lane id=":1034_4_0" index="0" speed="6.51" length="9.03" shape="1264.80,2869.60 1265.15,2872.05 1266.20,2873.80 1267.95,2874.85 1270.40,2875.20"/>
    </edge>
    <edge id=":1034_5" function="internal">
        <lane id=":1034_5_0" index="0" speed="9.26" length="19.35" shape="1261.60,2869.60 1260.85,2874.85 1258.60,2878.60 1254.85,2880.85 1249.60,2881.60"/>
    </edge>
    <edge id=":1034_6" function="internal">
        <lane id=":1034_6_0" index="0" speed="3.65" length="4.67" shape="1261.60,2869.60 1260.80,2870.80 1260.00,2871.20 1259.20,2870.80 1258.40,2869.60"/>
    </edge>
    <edge id=":1034_7" function="internal">
        <lane id=":1034_7_0" index="0" speed="6.51" length="9.03" shape="1249.60,2875.20 1252.05,2874.85 1253.80,2873.80 1254.85,2872.05 1255.20,2869.60"/>
    </edge>
    <edge id=":1034_8" function="internal">
        <lane id=":1034_8_0" index="0" speed="13.89" length="20.80" shape="1249.60,2875.20 1270.40,2875.20"/>
        <lane id=":1034_8_1" index="1" speed="13.89" length="20.80" shape="1249.60,2878.40 1270.40,2878.40"/>
    </edge>
    <edge id=":1034_10" function="internal">
        <lane id=":1034_10_0" index="0" speed="3.65" length="1.44" shape="1249.60,2878.40 1250.80,2879.20"/>
    </edge>
    <edge id=":1034_13" function="internal">
        <lane id=":1034_13_0" index="0" speed="3.65" length="3.23" shape="1250.80,2879.20 1251.20,2880.00 1250.80,2880.80 1249.60,2881.60"/>
    </edge>
    <edge id=":1229_0" function="internal">
        <lane id=":1229_0_0" index="0" speed="6.51" length="9.03" shape="715.20,2350.40 714.85,2347.95 713.80,2346.20 712.05,2345.15 709.60,2344.80"/>
    </edge>
    <edge id=":1229_1" function="internal">
        <lane id=":1229_1_0" index="0" speed="9.26" length="19.35" shape="718.40,2350.40 719.15,2345.15 721.40,2341.40 725.15,2339.15 730.40,2338.40"/>
    </edge>
    <edge id=":1229_2" function="internal">
        <lane id=":1229_2_0" index="0" speed="3.65" length="4.67" shape="718.40,2350.40 719.20,2349.20 720.00,2348.80 720.80,2349.20 721.60,2350.40"/>
    </edge>
    <edge id=":1229_3" function="internal">
        <lane id=":1229_3_0" index="0" speed="6.51" length="9.03" shape="730.40,2344.80 727.95,2345.15 726.20,2346.20 725.15,2347.95 724.80,2350.40"/>
    </edge>
    <edge id=":1229_4" function="internal">
        <lane id=":1229_4_0" index="0" speed="13.89" length="20.80" shape="730.40,2344.80 709.60,2344.80"/>
        <lane id=":1229_4_1" index="1" speed="13.89" length="20.80" shape="730.40,2341.60 709.60,2341.60"/>
    </edge>
    <edge id=":1229_6" function="internal">
        <lane id=":1229_6_0" index="0" speed="3.65" length="1.44" shape="730.40,2341.60 729.20,2340.80"/>
    </edge>
    <edge id=":1229_11" function="internal">
        <lane id=":1229_11_0" index="0" speed="3.65" length="3.23" shape="729.20,2340.80 728.80,2340.00 729.20,2339.20 730.40,2338.40"/>
    </edge>
    <edge id=":1229_7" function="internal">
        <lane id=":1229_7_0" index="0" speed="13.89" length="20.80" shape="709.60,2335.20 730.40,2335.20"/>
        <lane id=":1229_7_1" index="1" speed="13.89" length="20.80" shape="709.60,2338.40 730.40,2338.40"/>
    </edge>
    <edge id=":1229_9" function="internal">
        <lane id=":1229_9_0" index="0" speed="9.26" length="5.01" shape="709.60,2338.40 714.56,2339.11"/>
    </edge>
    <edge id=":1229_10" function="internal">
        <lane id=":1229_10_0" index="0" speed="3.65" length="1.44" shape="709.60,2338.40 710.80,2339.20"/>
    </edge>
    <edge id=":1229_12" function="internal">
        <lane id=":1229_12_0" index="0" speed="9.26" length="14.34" shape="714.56,2339.11 714.85,2339.15 718.60,2341.40 720.85,2345.15 721.60,2350.40"/>
    </edge>
    <edge id=":1229_13" function="internal">
        <lane id=":1229_13_0" index="0" speed="3.65" length="3.23" shape="710.80,2339.20 711.20,2340.00 710.80,2340.80 709.60,2341.60"/>
    </edge>
    <edge id=":1243_0" function="internal">
        <lane id=":1243_0_0" index="0" speed="6.51" length="9.03" shape="1615.20,2350.40 1614.85,2347.95 1613.80,2346.20 1612.05,2345.15 1609.60,2344.80"/>
    </edge>
    <edge id=":1243_1" function="internal">
        <lane id=":1243_1_0" index="0" speed="13.89" length="20.80" shape="1615.20,2350.40 1615.20,2329.60"/>
        <lane id=":1243_1_1" index="1" speed="13.89" length="20.80" shape="1618.40,2350.40 1618.40,2329.60"/>
    </edge>
    <edge id=":1243_3" function="internal">
        <lane id=":1243_3_0" index="0" speed="9.26" length="5.01" shape="1618.40,2350.40 1619.11,2345.44"/>
    </edge>
    <edge id=":1243_4" function="internal">
        <lane id=":1243_4_0" index="0" speed="3.65" length="1.44" shape="1618.40,2350.40 1619.20,2349.20"/>
    </edge>
    <edge id=":1243_20" function="internal">
        <lane id=":1243_20_0" index="0" speed="9.26" length="14.34" shape="1619.11,2345.44 1619.15,2345.15 1621.40,2341.40 1625.15,2339.15 1630.40,2338.40"/>
    </edge>
    <edge id=":1243_21" function="internal">
        <lane id=":1243_21_0" index="0" speed="3.65" length="3.23" shape="1619.20,2349.20 1620.00,2348.80 1620.80,2349.20 1621.60,2350.40"/>
    </edge>
    <edge id=":1243_5" function="internal">
        <lane id=":1243_5_0" index="0" speed="6.51" length="9.03" shape="1630.40,2344.80 1627.95,2345.15 1626.20,2346.20 1625.15,2347.95 1624.80,2350.40"/>
    </edge>
    <edge id=":1243_6" function="internal">
        <lane id=":1243_6_0" index="0" speed="13.89" length="20.80" shape="1630.40,2344.80 1609.60,2344.80"/>
        <lane id=":1243_6_1" index="1" speed="13.89" length="20.80" shape="1630.40,2341.60 1609.60,2341.60"/>
    </edge>
    <edge id=":1243_8" function="internal">
        <lane id=":1243_8_0" index="0" speed="9.26" length="19.35" shape="1630.40,2341.60 1625.15,2340.85 1621.40,2338.60 1619.15,2334.85 1618.40,2329.60"/>
    </edge>
    <edge id=":1243_9" function="internal">
        <lane id=":1243_9_0" index="0" speed="3.65" length="4.67" shape="1630.40,2341.60 1629.20,2340.80 1628.80,2340.00 1629.20,2339.20 1630.40,2338.40"/>
    </edge>
    <edge id=":1243_10" function="internal">
        <lane id=":1243_10_0" index="0" speed="6.51" length="9.03" shape="1624.80,2329.60 1625.15,2332.05 1626.20,2333.80 1627.95,2334.85 1630.40,2335.20"/>
    </edge>
    <edge id=":1243_11" function="internal">
        <lane id=":1243_11_0" index="0" speed="13.89" length="20.80" shape="1624.80,2329.60 1624.80,2350.40"/>
        <lane id=":1243_11_1" index="1" speed="13.89" length="20.80" shape="1621.60,2329.60 1621.60,2350.40"/>
    </edge>
    <edge id=":1243_13" function="internal">
        <lane id=":1243_13_0" index="0" speed="9.26" length="5.01" shape="1621.60,2329.60 1620.89,2334.56"/>
    </edge>
    <edge id=":1243_14" function="internal">
        <lane id=":1243_14_0" index="0" speed="3.65" length="1.44" shape="1621.60,2329.60 1620.80,2330.80"/>
    </edge>
    <edge id=":1243_22" function="internal">
        <lane id=":1243_22_0" index="0" speed="9.26" length="14.34" shape="1620.89,2334.56 1620.85,2334.85 1618.60,2338.60 1614.85,2340.85 1609.60,2341.60"/>
    </edge>
    <edge id=":1243_23" function="internal">
        <lane id=":1243_23_0" index="0" speed="3.65" length="3.23" shape="1620.80,2330.80 1620.00,2331.20 1619.20,2330.80 1618.40,2329.60"/>
    </edge>
    <edge id=":1243_15" function="internal">
        <lane id=":1243_15_0" index="0" speed="6.51" length="9.03" shape="1609.60,2335.20 1612.05,2334.85 1613.80,2333.80 1614.85,2332.05 1615.20,2329.60"/>
    </edge>
    <edge id=":1243_16" function="internal">
        <lane id=":1243_16_0" index="0" speed="13.89" length="20.80" shape="1609.60,2335.20 1630.40,2335.20"/>
        <lane id=":1243_16_1" index="1" speed="13.89" length="20.80" shape="1609.60,2338.40 1630.40,2338.40"/>
    </edge>
    <edge id=":1243_18" function="internal">
        <lane id=":1243_18_0" index="0" speed="9.26" length="19.35" shape="1609.60,2338.40 1614.85,2339.15 1618.60,2341.40 1620.85,2345.15 1621.60,2350.40"/>
    </edge>
    <edge id=":1243_19" function="internal">
        <lane id=":1243_19_0" index="0" speed="3.65" length="4.67" shape="1609.60,2338.40 1610.80,2339.20 1611.20,2340.00 1610.80,2340.80 1609.60,2341.60"/>
    </edge>
    <edge id=":1267_0" function="internal">
        <lane id=":1267_0_0" index="0" speed="6.51" length="9.03" shape="1435.20,2890.40 1434.85,2887.95 1433.80,2886.20 1432.05,2885.15 1429.60,2884.80"/>
    </edge>
    <edge id=":1267_1" function="internal">
        <lane id=":1267_1_0" index="0" speed="13.89" length="20.80" shape="1435.20,2890.40 1435.20,2869.60"/>
        <lane id=":1267_1_1" index="1" speed="13.89" length="20.80" shape="1438.40,2890.40 1438.40,2869.60"/>
    </edge>
    <edge id=":1267_3" function="internal">
        <lane id=":1267_3_0" index="0" speed="3.65" length="1.44" shape="1438.40,2890.40 1439.20,2889.20"/>
    </edge>
    <edge id=":1267_11" function="internal">
        <lane id=":1267_11_0" index="0" speed="3.65" length="3.23" shape="1439.20,2889.20 1440.00,2888.80 1440.80,2889.20 1441.60,2890.40"/>
    </edge>
    <edge id=":1267_4" function="internal">
        <lane id=":1267_4_0" index="0" speed="13.89" length="20.80" shape="1444.80,2869.60 1444.80,2890.40"/>
        <lane id=":1267_4_1" index="1" speed="13.89" length="20.80" shape="1441.60,2869.60 1441.60,2890.40"/>
    </edge>
    <edge id=":1267_6" function="internal">
        <lane id=":1267_6_0" index="0" speed="9.26" length="5.01" shape="1441.60,2869.60 1440.89,2874.56"/>
    </edge>
    <edge id=":1267_7" function="internal">
        <lane id=":1267_7_0" index="0" speed="3.65" length="1.44" shape="1441.60,2869.60 1440.80,2870.80"/>
    </edge>
    <edge id=":1267_12" function="internal">
        <lane id=":1267_12_0" index="0" speed="9.26" length="14.34" shape="1440.89,2874.56 1440.85,2874.85 1438.60,2878.60 1434.85,2880.85 1429.60,2881.60"/>
    </edge>
    <edge id=":1267_13" function="internal">
        <lane id=":1267_13_0" index="0" speed="3.65" length="3.23" shape="1440.80,2870.80 1440.00,2871.20 1439.20,2870.80 1438.40,2869.60"/>
    </edge>
    <edge id=":1267_8" function="internal">
        <lane id=":1267_8_0" index="0" speed="6.51" length="9.03" shape="1429.60,2875.20 1432.05,2874.85 1433.80,2873.80 1434.85,2872.05 1435.20,2869.60"/>
    </edge>
    <edge id=":1267_9" function="internal">
        <lane id=":1267_9_0" index="0" speed="9.26" length="19.35" shape="1429.60,2878.40 1434.85,2879.15 1438.60,2881.40 1440.85,2885.15 1441.60,2890.40"/>
    </edge>
    <edge id=":1267_10" function="internal">
        <lane id=":1267_10_0" index="0" speed="3.65" length="4.67" shape="1429.60,2878.40 1430.80,2879.20 1431.20,2880.00 1430.80,2880.80 1429.60,2881.60"/>
    </edge>
    <edge id=":1274_0" function="internal">
        <lane id=":1274_0_0" index="0" speed="13.89" length="20.80" shape="1615.20,2530.40 1615.20,2509.60"/>
        <lane id=":1274_0_1" index="1" speed="13.89" length="20.80" shape="1618.40,2530.40 1618.40,2509.60"/>
    </edge>
    <edge id=":1274_2" function="internal">
        <lane id=":1274_2_0" index="0" speed="9.26" length="5.01" shape="1618.40,2530.40 1619.11,2525.44"/>
    </edge>
    <edge id=":1274_3" function="internal">
        <lane id=":1274_3_0" index="0" speed="3.65" length="1.44" shape="1618.40,2530.40 1619.20,2529.20"/>
    </edge>
    <edge id=":1274_11" function="internal">
        <lane id=":1274_11_0" index="0" speed="9.26" length="14.34" shape="1619.11,2525.44 1619.15,2525.15 1621.40,2521.40 1625.15,2519.15 1630.40,2518.40"/>
    </edge>
    <edge id=":1274_12" function="internal">
        <lane id=":1274_12_0" index="0" speed="3.65" length="3.23" shape="1619.20,2529.20 1620.00,2528.80 1620.80,2529.20 1621.60,2530.40"/>
    </edge>
    <edge id=":1274_4" function="internal">
        <lane id=":1274_4_0" index="0" speed="6.51" length="9.03" shape="1630.40,2524.80 1627.95,2525.15 1626.20,2526.20 1625.15,2527.95 1624.80,2530.40"/>
    </edge>
    <edge id=":1274_5" function="internal">
        <lane id=":1274_5_0" index="0" speed="9.26" length="19.35" shape="1630.40,2521.60 1625.15,2520.85 1621.40,2518.60 1619.15,2514.85 1618.40,2509.60"/>
    </edge>
    <edge id=":1274_6" function="internal">
        <lane id=":1274_6_0" index="0" speed="3.65" length="4.67" shape="1630.40,2521.60 1629.20,2520.80 1628.80,2520.00 1629.20,2519.20 1630.40,2518.40"/>
    </edge>
    <edge id=":1274_7" function="internal">
        <lane id=":1274_7_0" index="0" speed="6.51" length="9.03" shape="1624.80,2509.60 1625.15,2512.05 1626.20,2513.80 1627.95,2514.85 1630.40,2515.20"/>
    </edge>
    <edge id=":1274_8" function="internal">
        <lane id=":1274_8_0" index="0" speed="13.89" length="20.80" shape="1624.80,2509.60 1624.80,2530.40"/>
        <lane id=":1274_8_1" index="1" speed="13.89" length="20.80" shape="1621.60,2509.60 1621.60,2530.40"/>
    </edge>
    <edge id=":1274_10" function="internal">
        <lane id=":1274_10_0" index="0" speed="3.65" length="1.44" shape="1621.60,2509.60 1620.80,2510.80"/>
    </edge>
    <edge id=":1274_13" function="internal">
        <lane id=":1274_13_0" index="0" speed="3.65" length="3.23" shape="1620.80,2510.80 1620.00,2511.20 1619.20,2510.80 1618.40,2509.60"/>
    </edge>
    <edge id=":1276_0" function="internal">
        <lane id=":1276_0_0" index="0" speed="6.51" length="9.03" shape="1795.20,2350.40 1794.85,2347.95 1793.80,2346.20 1792.05,2345.15 1789.60,2344.80"/>
    </edge>
    <edge id=":1276_1" function="internal">
        <lane id=":1276_1_0" index="0" speed="13.89" length="20.80" shape="1795.20,2350.40 1795.20,2329.60"/>
        <lane id=":1276_1_1" index="1" speed="13.89" length="20.80" shape="1798.40,2350.40 1798.40,2329.60"/>
    </edge>
    <edge id=":1276_3" function="internal">
        <lane id=":1276_3_0" index="0" speed="9.26" length="5.01" shape="1798.40,2350.40 1799.11,2345.44"/>
    </edge>
    <edge id=":1276_4" function="internal">
        <lane id=":1276_4_0" index="0" speed="3.65" length="1.44" shape="1798.40,2350.40 1799.20,2349.20"/>
    </edge>
    <edge id=":1276_20" function="internal">
        <lane id=":1276_20_0" index="0" speed="9.26" length="14.34" shape="1799.11,2345.44 1799.15,2345.15 1801.40,2341.40 1805.15,2339.15 1810.40,2338.40"/>
    </edge>
    <edge id=":1276_21" function="internal">
        <lane id=":1276_21_0" index="0" speed="3.65" length="3.23" shape="1799.20,2349.20 1800.00,2348.80 1800.80,2349.20 1801.60,2350.40"/>
    </edge>
    <edge id=":1276_5" function="internal">
        <lane id=":1276_5_0" index="0" speed="6.51" length="9.03" shape="1810.40,2344.80 1807.95,2345.15 1806.20,2346.20 1805.15,2347.95 1804.80,2350.40"/>
    </edge>
    <edge id=":1276_6" function="internal">
        <lane id=":1276_6_0" index="0" speed="13.89" length="20.80" shape="1810.40,2344.80 1789.60,2344.80"/>
        <lane id=":1276_6_1" index="1" speed="13.89" length="20.80" shape="1810.40,2341.60 1789.60,2341.60"/>
    </edge>
    <edge id=":1276_8" function="internal">
        <lane id=":1276_8_0" index="0" speed="9.26" length="19.35" shape="1810.40,2341.60 1805.15,2340.85 1801.40,2338.60 1799.15,2334.85 1798.40,2329.60"/>
    </edge>
    <edge id=":1276_9" function="internal">
        <lane id=":1276_9_0" index="0" speed="3.65" length="4.67" shape="1810.40,2341.60 1809.20,2340.80 1808.80,2340.00 1809.20,2339.20 1810.40,2338.40"/>
    </edge>
    <edge id=":1276_10" function="internal">