<?xml version="1.0" encoding="UTF-8"?>
<routes>
    <vType id="car" accel="2.5" decel="4.5" sigma="0.5" length="4.5" maxSpeed="50.0" color="1,1,0" />
    <vType id="motorcycle" accel="3.5" decel="5.0" sigma="0.3" length="2.2" maxSpeed="60.0" color="0,0,1" />
    <route id="north_to_south" edges="E1 E1.200" />
    <route id="south_to_north" edges="-E1 -E1.238" />
    <route id="east_to_west" edges="E0 E0.319" />
    <route id="west_to_east" edges="-E0 -E0.254" />
    <vehicle id="veh_0" type="car" route="north_to_south" depart="0.0" />
    <vehicle id="veh_1" type="car" route="north_to_south" depart="15.0" />
    <vehicle id="veh_2" type="motorcycle" route="north_to_south" depart="30.0" />
    <vehicle id="veh_3" type="car" route="north_to_south" depart="45.0" />
    <vehicle id="veh_4" type="car" route="north_to_south" depart="60.0" />
    <vehicle id="veh_5" type="car" route="north_to_south" depart="75.0" />
    <vehicle id="veh_6" type="car" route="north_to_south" depart="90.0" />
    <vehicle id="veh_7" type="car" route="north_to_south" depart="105.0" />
    <vehicle id="veh_8" type="car" route="north_to_south" depart="120.0" />
    <vehicle id="veh_9" type="car" route="north_to_south" depart="135.0" />
    <vehicle id="veh_10" type="motorcycle" route="north_to_south" depart="150.0" />
    <vehicle id="veh_11" type="motorcycle" route="north_to_south" depart="165.0" />
    <vehicle id="veh_12" type="car" route="north_to_south" depart="180.0" />
    <vehicle id="veh_13" type="car" route="north_to_south" depart="195.0" />
    <vehicle id="veh_14" type="car" route="north_to_south" depart="210.0" />
    <vehicle id="veh_15" type="car" route="north_to_south" depart="225.0" />
    <vehicle id="veh_16" type="car" route="north_to_south" depart="240.0" />
    <vehicle id="veh_17" type="motorcycle" route="north_to_south" depart="255.0" />
    <vehicle id="veh_18" type="car" route="north_to_south" depart="270.0" />
    <vehicle id="veh_19" type="car" route="north_to_south" depart="285.0" />
    <vehicle id="veh_20" type="motorcycle" route="north_to_south" depart="300.0" />
    <vehicle id="veh_21" type="car" route="north_to_south" depart="315.0" />
    <vehicle id="veh_22" type="car" route="north_to_south" depart="330.0" />
    <vehicle id="veh_23" type="car" route="north_to_south" depart="345.0" />
    <vehicle id="veh_24" type="motorcycle" route="north_to_south" depart="360.0" />
    <vehicle id="veh_25" type="car" route="north_to_south" depart="375.0" />
    <vehicle id="veh_26" type="car" route="north_to_south" depart="390.0" />
    <vehicle id="veh_27" type="car" route="north_to_south" depart="405.0" />
    <vehicle id="veh_28" type="car" route="north_to_south" depart="420.0" />
    <vehicle id="veh_29" type="car" route="north_to_south" depart="435.0" />
    <vehicle id="veh_30" type="car" route="north_to_south" depart="450.0" />
    <vehicle id="veh_31" type="car" route="north_to_south" depart="465.0" />
    <vehicle id="veh_32" type="car" route="north_to_south" depart="480.0" />
    <vehicle id="veh_33" type="car" route="north_to_south" depart="495.0" />
    <vehicle id="veh_34" type="car" route="north_to_south" depart="510.0" />
    <vehicle id="veh_35" type="car" route="north_to_south" depart="525.0" />
    <vehicle id="veh_36" type="motorcycle" route="north_to_south" depart="540.0" />
    <vehicle id="veh_37" type="car" route="north_to_south" depart="555.0" />
    <vehicle id="veh_38" type="motorcycle" route="north_to_south" depart="570.0" />
    <vehicle id="veh_39" type="motorcycle" route="north_to_south" depart="585.0" />
    <vehicle id="veh_40" type="car" route="south_to_north" depart="0.0" />
    <vehicle id="veh_41" type="motorcycle" route="south_to_north" depart="18.0" />
    <vehicle id="veh_42" type="car" route="south_to_north" depart="36.0" />
    <vehicle id="veh_43" type="motorcycle" route="south_to_north" depart="54.0" />
    <vehicle id="veh_44" type="car" route="south_to_north" depart="72.0" />
    <vehicle id="veh_45" type="car" route="south_to_north" depart="90.0" />
    <vehicle id="veh_46" type="car" route="south_to_north" depart="108.0" />
    <vehicle id="veh_47" type="car" route="south_to_north" depart="126.0" />
    <vehicle id="veh_48" type="car" route="south_to_north" depart="144.0" />
    <vehicle id="veh_49" type="motorcycle" route="south_to_north" depart="162.0" />
    <vehicle id="veh_50" type="motorcycle" route="south_to_north" depart="180.0" />
    <vehicle id="veh_51" type="motorcycle" route="south_to_north" depart="198.0" />
    <vehicle id="veh_52" type="car" route="south_to_north" depart="216.0" />
    <vehicle id="veh_53" type="motorcycle" route="south_to_north" depart="234.0" />
    <vehicle id="veh_54" type="motorcycle" route="south_to_north" depart="252.0" />
    <vehicle id="veh_55" type="motorcycle" route="south_to_north" depart="270.0" />
    <vehicle id="veh_56" type="motorcycle" route="south_to_north" depart="288.0" />
    <vehicle id="veh_57" type="motorcycle" route="south_to_north" depart="306.0" />
    <vehicle id="veh_58" type="motorcycle" route="south_to_north" depart="324.0" />
    <vehicle id="veh_59" type="motorcycle" route="south_to_north" depart="342.0" />
    <vehicle id="veh_60" type="car" route="south_to_north" depart="360.0" />
    <vehicle id="veh_61" type="car" route="south_to_north" depart="378.0" />
    <vehicle id="veh_62" type="car" route="south_to_north" depart="396.0" />
    <vehicle id="veh_63" type="car" route="south_to_north" depart="414.0" />
    <vehicle id="veh_64" type="car" route="south_to_north" depart="432.0" />
    <vehicle id="veh_65" type="motorcycle" route="south_to_north" depart="450.0" />
    <vehicle id="veh_66" type="motorcycle" route="south_to_north" depart="468.0" />
    <vehicle id="veh_67" type="car" route="south_to_north" depart="486.0" />
    <vehicle id="veh_68" type="motorcycle" route="south_to_north" depart="504.0" />
    <vehicle id="veh_69" type="motorcycle" route="south_to_north" depart="522.0" />
    <vehicle id="veh_70" type="motorcycle" route="south_to_north" depart="540.0" />
    <vehicle id="veh_71" type="car" route="south_to_north" depart="558.0" />
    <vehicle id="veh_72" type="car" route="south_to_north" depart="576.0" />
    <vehicle id="veh_73" type="car" route="south_to_north" depart="594.0" />
    <vehicle id="veh_74" type="motorcycle" route="east_to_west" depart="0.0" />
    <vehicle id="veh_75" type="car" route="east_to_west" depart="16.4" />
    <vehicle id="veh_76" type="car" route="east_to_west" depart="32.7" />
    <vehicle id="veh_77" type="car" route="east_to_west" depart="49.1" />
    <vehicle id="veh_78" type="car" route="east_to_west" depart="65.5" />
    <vehicle id="veh_79" type="car" route="east_to_west" depart="81.8" />
    <vehicle id="veh_80" type="car" route="east_to_west" depart="98.2" />
    <vehicle id="veh_81" type="car" route="east_to_west" depart="114.5" />
    <vehicle id="veh_82" type="car" route="east_to_west" depart="130.9" />
    <vehicle id="veh_83" type="car" route="east_to_west" depart="147.3" />
    <vehicle id="veh_84" type="car" route="east_to_west" depart="163.6" />
    <vehicle id="veh_85" type="motorcycle" route="east_to_west" depart="180.0" />
    <vehicle id="veh_86" type="car" route="east_to_west" depart="196.4" />
    <vehicle id="veh_87" type="motorcycle" route="east_to_west" depart="212.7" />
    <vehicle id="veh_88" type="motorcycle" route="east_to_west" depart="229.1" />
    <vehicle id="veh_89" type="motorcycle" route="east_to_west" depart="245.5" />
    <vehicle id="veh_90" type="car" route="east_to_west" depart="261.8" />
    <vehicle id="veh_91" type="car" route="east_to_west" depart="278.2" />
    <vehicle id="veh_92" type="car" route="east_to_west" depart="294.5" />
    <vehicle id="veh_93" type="car" route="east_to_west" depart="310.9" />
    <vehicle id="veh_94" type="car" route="east_to_west" depart="327.3" />
    <vehicle id="veh_95" type="car" route="east_to_west" depart="343.6" />
    <vehicle id="veh_96" type="car" route="east_to_west" depart="360.0" />
    <vehicle id="veh_97" type="car" route="east_to_west" depart="376.4" />
    <vehicle id="veh_98" type="car" route="east_to_west" depart="392.7" />
    <vehicle id="veh_99" type="car" route="east_to_west" depart="409.1" />
    <vehicle id="veh_100" type="motorcycle" route="east_to_west" depart="425.5" />
    <vehicle id="veh_101" type="car" route="east_to_west" depart="441.8" />
    <vehicle id="veh_102" type="car" route="east_to_west" depart="458.2" />
    <vehicle id="veh_103" type="car" route="east_to_west" depart="474.5" />
    <vehicle id="veh_104" type="motorcycle" route="east_to_west" depart="490.9" />
    <vehicle id="veh_105" type="car" route="east_to_west" depart="507.3" />
    <vehicle id="veh_106" type="car" route="east_to_west" depart="523.6" />
    <vehicle id="veh_107" type="motorcycle" route="east_to_west" depart="540.0" />
    <vehicle id="veh_108" type="car" route="east_to_west" depart="556.4" />
    <vehicle id="veh_109" type="motorcycle" route="east_to_west" depart="572.7" />
    <vehicle id="veh_110" type="car" route="east_to_west" depart="589.1" />
    <vehicle id="veh_111" type="motorcycle" route="west_to_east" depart="0.0" />
    <vehicle id="veh_112" type="car" route="west_to_east" depart="20.0" />
    <vehicle id="veh_113" type="car" route="west_to_east" depart="40.0" />
    <vehicle id="veh_114" type="car" route="west_to_east" depart="60.0" />
    <vehicle id="veh_115" type="car" route="west_to_east" depart="80.0" />
    <vehicle id="veh_116" type="car" route="west_to_east" depart="100.0" />
    <vehicle id="veh_117" type="car" route="west_to_east" depart="120.0" />
    <vehicle id="veh_118" type="car" route="west_to_east" depart="140.0" />
    <vehicle id="veh_119" type="car" route="west_to_east" depart="160.0" />
    <vehicle id="veh_120" type="car" route="west_to_east" depart="180.0" />
    <vehicle id="veh_121" type="motorcycle" route="west_to_east" depart="200.0" />
    <vehicle id="veh_122" type="car" route="west_to_east" depart="220.0" />
    <vehicle id="veh_123" type="car" route="west_to_east" depart="240.0" />
    <vehicle id="veh_124" type="motorcycle" route="west_to_east" depart="260.0" />
    <vehicle id="veh_125" type="car" route="west_to_east" depart="280.0" />
    <vehicle id="veh_126" type="car" route="west_to_east" depart="300.0" />
    <vehicle id="veh_127" type="car" route="west_to_east" depart="320.0" />
    <vehicle id="veh_128" type="motorcycle" route="west_to_east" depart="340.0" />
    <vehicle id="veh_129" type="car" route="west_to_east" depart="360.0" />
    <vehicle id="veh_130" type="car" route="west_to_east" depart="380.0" />
    <vehicle id="veh_131" type="motorcycle" route="west_to_east" depart="400.0" />
    <vehicle id="veh_132" type="motorcycle" route="west_to_east" depart="420.0" />
    <vehicle id="veh_133" type="motorcycle" route="west_to_east" depart="440.0" />
    <vehicle id="veh_134" type="car" route="west_to_east" depart="460.0" />
    <vehicle id="veh_135" type="car" route="west_to_east" depart="480.0" />
    <vehicle id="veh_136" type="car" route="west_to_east" depart="500.0" />
    <vehicle id="veh_137" type="car" route="west_to_east" depart="520.0" />
    <vehicle id="veh_138" type="car" route="west_to_east" depart="540.0" />
    <vehicle id="veh_139" type="car" route="west_to_east" depart="560.0" />
    <vehicle id="veh_140" type="car" route="west_to_east" depart="580.0" />
    <vehicle id="veh_141" type="motorcycle" route="north_to_south" depart="600.0" />
    <vehicle id="veh_142" type="car" route="north_to_south" depart="630.0" />
    <vehicle id="veh_143" type="car" route="north_to_south" depart="660.0" />
    <vehicle id="veh_144" type="car" route="north_to_south" depart="675.0" />
    <vehicle id="veh_145" type="car" route="north_to_south" depart="690.0" />
    <vehicle id="veh_146" type="car" route="north_to_south" depart="705.0" />
    <vehicle id="veh_147" type="motorcycle" route="north_to_south" depart="720.0" />
    <vehicle id="veh_148" type="car" route="north_to_south" depart="730.0" />
    <vehicle id="veh_149" type="car" route="north_to_south" depart="740.0" />
    <vehicle id="veh_150" type="motorcycle" route="north_to_south" depart="750.0" />
    <vehicle id="veh_151" type="car" route="north_to_south" depart="760.0" />
    <vehicle id="veh_152" type="car" route="north_to_south" depart="770.0" />
    <vehicle id="veh_153" type="car" route="north_to_south" depart="780.0" />
    <vehicle id="veh_154" type="car" route="north_to_south" depart="787.5" />
    <vehicle id="veh_155" type="car" route="north_to_south" depart="795.0" />
    <vehicle id="veh_156" type="car" route="north_to_south" depart="802.5" />
    <vehicle id="veh_157" type="car" route="north_to_south" depart="810.0" />
    <vehicle id="veh_158" type="car" route="north_to_south" depart="817.5" />
    <vehicle id="veh_159" type="car" route="north_to_south" depart="825.0" />
    <vehicle id="veh_160" type="car" route="north_to_south" depart="832.5" />
    <vehicle id="veh_161" type="car" route="north_to_south" depart="840.0" />
    <vehicle id="veh_162" type="car" route="north_to_south" depart="846.0" />
    <vehicle id="veh_163" type="car" route="north_to_south" depart="852.0" />
    <vehicle id="veh_164" type="car" route="north_to_south" depart="858.0" />
    <vehicle id="veh_165" type="car" route="north_to_south" depart="864.0" />
    <vehicle id="veh_166" type="car" route="north_to_south" depart="870.0" />
    <vehicle id="veh_167" type="motorcycle" route="north_to_south" depart="876.0" />
    <vehicle id="veh_168" type="car" route="north_to_south" depart="882.0" />
    <vehicle id="veh_169" type="car" route="north_to_south" depart="888.0" />
    <vehicle id="veh_170" type="motorcycle" route="north_to_south" depart="894.0" />
    <vehicle id="veh_171" type="car" route="north_to_south" depart="900.0" />
    <vehicle id="veh_172" type="car" route="north_to_south" depart="905.0" />
    <vehicle id="veh_173" type="car" route="north_to_south" depart="910.0" />
    <vehicle id="veh_174" type="car" route="north_to_south" depart="915.0" />
    <vehicle id="veh_175" type="car" route="north_to_south" depart="920.0" />
    <vehicle id="veh_176" type="car" route="north_to_south" depart="925.0" />
    <vehicle id="veh_177" type="car" route="north_to_south" depart="930.0" />
    <vehicle id="veh_178" type="car" route="north_to_south" depart="935.0" />
    <vehicle id="veh_179" type="car" route="north_to_south" depart="940.0" />
    <vehicle id="veh_180" type="car" route="north_to_south" depart="945.0" />
    <vehicle id="veh_181" type="car" route="north_to_south" depart="950.0" />
    <vehicle id="veh_182" type="car" route="north_to_south" depart="955.0" />
    <vehicle id="veh_183" type="car" route="north_to_south" depart="960.0" />
    <vehicle id="veh_184" type="car" route="north_to_south" depart="964.3" />
    <vehicle id="veh_185" type="car" route="north_to_south" depart="968.6" />
    <vehicle id="veh_186" type="car" route="north_to_south" depart="972.9" />
    <vehicle id="veh_187" type="car" route="north_to_south" depart="977.1" />
    <vehicle id="veh_188" type="car" route="north_to_south" depart="981.4" />
    <vehicle id="veh_189" type="car" route="north_to_south" depart="985.7" />
    <vehicle id="veh_190" type="car" route="north_to_south" depart="990.0" />
    <vehicle id="veh_191" type="motorcycle" route="north_to_south" depart="994.3" />
    <vehicle id="veh_192" type="motorcycle" route="north_to_south" depart="998.6" />
    <vehicle id="veh_193" type="car" route="north_to_south" depart="1002.9" />
    <vehicle id="veh_194" type="car" route="north_to_south" depart="1007.1" />
    <vehicle id="veh_195" type="car" route="north_to_south" depart="1011.4" />
    <vehicle id="veh_196" type="motorcycle" route="north_to_south" depart="1015.7" />
    <vehicle id="veh_197" type="car" route="north_to_south" depart="1020.0" />
    <vehicle id="veh_198" type="motorcycle" route="north_to_south" depart="1023.8" />
    <vehicle id="veh_199" type="car" route="north_to_south" depart="1027.5" />
    <vehicle id="veh_200" type="motorcycle" route="north_to_south" depart="1031.2" />
    <vehicle id="veh_201" type="car" route="north_to_south" depart="1035.0" />
    <vehicle id="veh_202" type="car" route="north_to_south" depart="1038.8" />
    <vehicle id="veh_203" type="car" route="north_to_south" depart="1042.5" />
    <vehicle id="veh_204" type="motorcycle" route="north_to_south" depart="1046.2" />
    <vehicle id="veh_205" type="car" route="north_to_south" depart="1050.0" />
    <vehicle id="veh_206" type="car" route="north_to_south" depart="1053.8" />
    <vehicle id="veh_207" type="car" route="north_to_south" depart="1057.5" />
    <vehicle id="veh_208" type="car" route="north_to_south" depart="1061.2" />
    <vehicle id="veh_209" type="car" route="north_to_south" depart="1065.0" />
    <vehicle id="veh_210" type="car" route="north_to_south" depart="1068.8" />
    <vehicle id="veh_211" type="motorcycle" route="north_to_south" depart="1072.5" />
    <vehicle id="veh_212" type="car" route="north_to_south" depart="1076.2" />
    <vehicle id="veh_213" type="car" route="north_to_south" depart="1080.0" />
    <vehicle id="veh_214" type="car" route="north_to_south" depart="1083.3" />
    <vehicle id="veh_215" type="car" route="north_to_south" depart="1086.7" />
    <vehicle id="veh_216" type="motorcycle" route="north_to_south" depart="1090.0" />
    <vehicle id="veh_217" type="motorcycle" route="north_to_south" depart="1093.3" />
    <vehicle id="veh_218" type="car" route="north_to_south" depart="1096.7" />
    <vehicle id="veh_219" type="car" route="north_to_south" depart="1100.0" />
    <vehicle id="veh_220" type="car" route="north_to_south" depart="1103.3" />
    <vehicle id="veh_221" type="car" route="north_to_south" depart="1106.7" />
    <vehicle id="veh_222" type="car" route="north_to_south" depart="1110.0" />
    <vehicle id="veh_223" type="car" route="north_to_south" depart="1113.3" />
    <vehicle id="veh_224" type="car" route="north_to_south" depart="1116.7" />
    <vehicle id="veh_225" type="car" route="north_to_south" depart="1120.0" />
    <vehicle id="veh_226" type="motorcycle" route="north_to_south" depart="1123.3" />
    <vehicle id="veh_227" type="motorcycle" route="north_to_south" depart="1126.7" />
    <vehicle id="veh_228" type="car" route="north_to_south" depart="1130.0" />
    <vehicle id="veh_229" type="car" route="north_to_south" depart="1133.3" />
    <vehicle id="veh_230" type="motorcycle" route="north_to_south" depart="1136.7" />
    <vehicle id="veh_231" type="car" route="north_to_south" depart="1140.0" />
    <vehicle id="veh_232" type="motorcycle" route="north_to_south" depart="1140.0" />
    <vehicle id="veh_233" type="car" route="north_to_south" depart="1143.0" />
    <vehicle id="veh_234" type="motorcycle" route="north_to_south" depart="1146.0" />
    <vehicle id="veh_235" type="motorcycle" route="north_to_south" depart="1149.0" />
    <vehicle id="veh_236" type="car" route="north_to_south" depart="1152.0" />
    <vehicle id="veh_237" type="motorcycle" route="north_to_south" depart="1155.0" />
    <vehicle id="veh_238" type="car" route="north_to_south" depart="1158.0" />
    <vehicle id="veh_239" type="car" route="north_to_south" depart="1161.0" />
    <vehicle id="veh_240" type="motorcycle" route="north_to_south" depart="1164.0" />
    <vehicle id="veh_241" type="car" route="north_to_south" depart="1167.0" />
    <vehicle id="veh_242" type="motorcycle" route="north_to_south" depart="1170.0" />
    <vehicle id="veh_243" type="car" route="north_to_south" depart="1173.0" />
    <vehicle id="veh_244" type="car" route="north_to_south" depart="1176.0" />
    <vehicle id="veh_245" type="car" route="north_to_south" depart="1179.0" />
    <vehicle id="veh_246" type="motorcycle" route="north_to_south" depart="1182.0" />
    <vehicle id="veh_247" type="car" route="north_to_south" depart="1185.0" />
    <vehicle id="veh_248" type="car" route="north_to_south" depart="1188.0" />
    <vehicle id="veh_249" type="motorcycle" route="north_to_south" depart="1191.0" />
    <vehicle id="veh_250" type="car" route="north_to_south" depart="1194.0" />
    <vehicle id="veh_251" type="car" route="north_to_south" depart="1197.0" />
    <vehicle id="veh_252" type="car" route="south_to_north" depart="600.0" />
    <vehicle id="veh_253" type="car" route="south_to_north" depart="622.5" />
    <vehicle id="veh_254" type="motorcycle" route="south_to_north" depart="645.0" />
    <vehicle id="veh_255" type="car" route="south_to_north" depart="667.5" />
    <vehicle id="veh_256" type="car" route="south_to_north" depart="690.0" />
    <vehicle id="veh_257" type="motorcycle" route="south_to_north" depart="712.5" />
    <vehicle id="veh_258" type="car" route="south_to_north" depart="735.0" />
    <vehicle id="veh_259" type="motorcycle" route="south_to_north" depart="757.5" />
    <vehicle id="veh_260" type="car" route="south_to_north" depart="780.0" />
    <vehicle id="veh_261" type="car" route="south_to_north" depart="802.5" />
    <vehicle id="veh_262" type="motorcycle" route="south_to_north" depart="825.0" />
    <vehicle id="veh_263" type="motorcycle" route="south_to_north" depart="847.5" />
    <vehicle id="veh_264" type="motorcycle" route="south_to_north" depart="870.0" />
    <vehicle id="veh_265" type="car" route="south_to_north" depart="892.5" />
    <vehicle id="veh_266" type="car" route="south_to_north" depart="915.0" />
    <vehicle id="veh_267" type="motorcycle" route="south_to_north" depart="937.5" />
    <vehicle id="veh_268" type="car" route="south_to_north" depart="960.0" />
    <vehicle id="veh_269" type="motorcycle" route="south_to_north" depart="982.5" />
    <vehicle id="veh_270" type="car" route="south_to_north" depart="1005.0" />
    <vehicle id="veh_271" type="car" route="south_to_north" depart="1027.5" />
    <vehicle id="veh_272" type="car" route="south_to_north" depart="1050.0" />
    <vehicle id="veh_273" type="motorcycle" route="south_to_north" depart="1072.5" />
    <vehicle id="veh_274" type="car" route="south_to_north" depart="1095.0" />
    <vehicle id="veh_275" type="car" route="south_to_north" depart="1117.5" />
    <vehicle id="veh_276" type="motorcycle" route="south_to_north" depart="1140.0" />
    <vehicle id="veh_277" type="car" route="south_to_north" depart="1162.5" />
    <vehicle id="veh_278" type="car" route="south_to_north" depart="1185.0" />
    <vehicle id="veh_279" type="car" route="east_to_west" depart="600.0" />
    <vehicle id="veh_280" type="car" route="east_to_west" depart="630.0" />
    <vehicle id="veh_281" type="car" route="east_to_west" depart="660.0" />
    <vehicle id="veh_282" type="motorcycle" route="east_to_west" depart="690.0" />
    <vehicle id="veh_283" type="car" route="east_to_west" depart="720.0" />
    <vehicle id="veh_284" type="motorcycle" route="east_to_west" depart="750.0" />
    <vehicle id="veh_285" type="car" route="east_to_west" depart="780.0" />
    <vehicle id="veh_286" type="motorcycle" route="east_to_west" depart="810.0" />
    <vehicle id="veh_287" type="car" route="east_to_west" depart="840.0" />
    <vehicle id="veh_288" type="car" route="east_to_west" depart="870.0" />
    <vehicle id="veh_289" type="motorcycle" route="east_to_west" depart="900.0" />
    <vehicle id="veh_290" type="motorcycle" route="east_to_west" depart="930.0" />
    <vehicle id="veh_291" type="car" route="east_to_west" depart="960.0" />
    <vehicle id="veh_292" type="car" route="east_to_west" depart="990.0" />
    <vehicle id="veh_293" type="car" route="east_to_west" depart="1020.0" />
    <vehicle id="veh_294" type="car" route="east_to_west" depart="1050.0" />
    <vehicle id="veh_295" type="car" route="east_to_west" depart="1080.0" />
    <vehicle id="veh_296" type="motorcycle" route="east_to_west" depart="1110.0" />
    <vehicle id="veh_297" type="car" route="east_to_west" depart="1140.0" />
    <vehicle id="veh_298" type="car" route="east_to_west" depart="1170.0" />
    <vehicle id="veh_299" type="car" route="west_to_east" depart="600.0" />
    <vehicle id="veh_300" type="car" route="west_to_east" depart="636.0" />
    <vehicle id="veh_301" type="motorcycle" route="west_to_east" depart="672.0" />
    <vehicle id="veh_302" type="car" route="west_to_east" depart="708.0" />
    <vehicle id="veh_303" type="car" route="west_to_east" depart="744.0" />
    <vehicle id="veh_304" type="car" route="west_to_east" depart="780.0" />
    <vehicle id="veh_305" type="motorcycle" route="west_to_east" depart="816.0" />
    <vehicle id="veh_306" type="car" route="west_to_east" depart="852.0" />
    <vehicle id="veh_307" type="car" route="west_to_east" depart="888.0" />
    <vehicle id="veh_308" type="car" route="west_to_east" depart="924.0" />
    <vehicle id="veh_309" type="car" route="west_to_east" depart="960.0" />
    <vehicle id="veh_310" type="car" route="west_to_east" depart="996.0" />
    <vehicle id="veh_311" type="car" route="west_to_east" depart="1032.0" />
    <vehicle id="veh_312" type="motorcycle" route="west_to_east" depart="1068.0" />
    <vehicle id="veh_313" type="motorcycle" route="west_to_east" depart="1104.0" />
    <vehicle id="veh_314" type="car" route="west_to_east" depart="1140.0" />
    <vehicle id="veh_315" type="motorcycle" route="west_to_east" depart="1176.0" />
    <vehicle id="veh_316" type="car" route="north_to_south" depart="1200.0" />
    <vehicle id="veh_317" type="car" route="north_to_south" depart="1225.7" />
    <vehicle id="veh_318" type="motorcycle" route="north_to_south" depart="1251.4" />
    <vehicle id="veh_319" type="car" route="north_to_south" depart="1260.0" />
    <vehicle id="veh_320" type="car" route="north_to_south" depart="1288.6" />
    <vehicle id="veh_321" type="car" route="north_to_south" depart="1317.1" />
    <vehicle id="veh_322" type="car" route="north_to_south" depart="1320.0" />
    <vehicle id="veh_323" type="car" route="north_to_south" depart="1352.1" />
    <vehicle id="veh_324" type="motorcycle" route="north_to_south" depart="1380.0" />
    <vehicle id="veh_325" type="car" route="north_to_south" depart="1416.7" />
    <vehicle id="veh_326" type="car" route="north_to_south" depart="1440.0" />
    <vehicle id="veh_327" type="car" route="north_to_south" depart="1482.9" />
    <vehicle id="veh_328" type="car" route="north_to_south" depart="1500.0" />
    <vehicle id="veh_329" type="car" route="north_to_south" depart="1551.4" />
    <vehicle id="veh_330" type="car" route="north_to_south" depart="1560.0" />
    <vehicle id="veh_331" type="car" route="north_to_south" depart="1620.0" />
    <vehicle id="veh_332" type="car" route="north_to_south" depart="1680.0" />
    <vehicle id="veh_333" type="car" route="north_to_south" depart="1740.0" />
    <vehicle id="veh_334" type="car" route="south_to_north" depart="1200.0" />
    <vehicle id="veh_335" type="car" route="south_to_north" depart="1230.0" />
    <vehicle id="veh_336" type="car" route="south_to_north" depart="1260.0" />
    <vehicle id="veh_337" type="car" route="south_to_north" depart="1290.0" />
    <vehicle id="veh_338" type="car" route="south_to_north" depart="1320.0" />
    <vehicle id="veh_339" type="car" route="south_to_north" depart="1350.0" />
    <vehicle id="veh_340" type="motorcycle" route="south_to_north" depart="1380.0" />
    <vehicle id="veh_341" type="car" route="south_to_north" depart="1410.0" />
    <vehicle id="veh_342" type="car" route="south_to_north" depart="1440.0" />
    <vehicle id="veh_343" type="motorcycle" route="south_to_north" depart="1470.0" />
    <vehicle id="veh_344" type="motorcycle" route="south_to_north" depart="1500.0" />
    <vehicle id="veh_345" type="car" route="south_to_north" depart="1530.0" />
    <vehicle id="veh_346" type="car" route="south_to_north" depart="1560.0" />
    <vehicle id="veh_347" type="motorcycle" route="south_to_north" depart="1590.0" />
    <vehicle id="veh_348" type="car" route="south_to_north" depart="1620.0" />
    <vehicle id="veh_349" type="car" route="south_to_north" depart="1650.0" />
    <vehicle id="veh_350" type="car" route="south_to_north" depart="1680.0" />
    <vehicle id="veh_351" type="car" route="south_to_north" depart="1710.0" />
    <vehicle id="veh_352" type="car" route="south_to_north" depart="1740.0" />
    <vehicle id="veh_353" type="car" route="south_to_north" depart="1770.0" />
    <vehicle id="veh_354" type="car" route="east_to_west" depart="1200.0" />
    <vehicle id="veh_355" type="motorcycle" route="east_to_west" depart="1227.7" />
    <vehicle id="veh_356" type="car" route="east_to_west" depart="1255.4" />
    <vehicle id="veh_357" type="car" route="east_to_west" depart="1260.0" />
    <vehicle id="veh_358" type="car" route="east_to_west" depart="1273.8" />
    <vehicle id="veh_359" type="car" route="east_to_west" depart="1287.7" />
    <vehicle id="veh_360" type="motorcycle" route="east_to_west" depart="1301.5" />
    <vehicle id="veh_361" type="motorcycle" route="east_to_west" depart="1315.4" />
    <vehicle id="veh_362" type="car" route="east_to_west" depart="1320.0" />
    <vehicle id="veh_363" type="motorcycle" route="east_to_west" depart="1329.2" />
    <vehicle id="veh_364" type="car" route="east_to_west" depart="1338.5" />
    <vehicle id="veh_365" type="car" route="east_to_west" depart="1347.7" />
    <vehicle id="veh_366" type="car" route="east_to_west" depart="1356.9" />
    <vehicle id="veh_367" type="motorcycle" route="east_to_west" depart="1366.2" />
    <vehicle id="veh_368" type="car" route="east_to_west" depart="1375.4" />
    <vehicle id="veh_369" type="motorcycle" route="east_to_west" depart="1380.0" />
    <vehicle id="veh_370" type="car" route="east_to_west" depart="1386.9" />
    <vehicle id="veh_371" type="car" route="east_to_west" depart="1393.8" />