<?xml version="1.0" encoding="UTF-8"?>
<routes>
    <vType id="car" accel="2.6" decel="4.5" sigma="0.5" length="5.0" maxSpeed="50.0" color="1,1,0" />
    <vType id="motorcycle" accel="3.5" decel="5.0" sigma="0.3" length="2.2" maxSpeed="60.0" color="0,0,1" />
    <route id="north_to_south" edges="E1 E1.200" />
    <route id="south_to_north" edges="-E1 -E1.238" />
    <route id="east_to_west" edges="E0 E0.319" />
    <route id="west_to_east" edges="-E0 -E0.254" />
    <vehicle id="veh_0" type="car" route="north_to_south" depart="0.0" />
    <vehicle id="veh_1" type="car" route="north_to_south" depart="30.0" />
    <vehicle id="veh_2" type="car" route="north_to_south" depart="60.0" />
    <vehicle id="veh_3" type="motorcycle" route="north_to_south" depart="90.0" />
    <vehicle id="veh_4" type="car" route="north_to_south" depart="120.0" />
    <vehicle id="veh_5" type="car" route="north_to_south" depart="150.0" />
    <vehicle id="veh_6" type="car" route="north_to_south" depart="180.0" />
    <vehicle id="veh_7" type="motorcycle" route="north_to_south" depart="210.0" />
    <vehicle id="veh_8" type="car" route="north_to_south" depart="240.0" />
    <vehicle id="veh_9" type="car" route="north_to_south" depart="270.0" />
    <vehicle id="veh_10" type="car" route="north_to_south" depart="300.0" />
    <vehicle id="veh_11" type="car" route="north_to_south" depart="330.0" />
    <vehicle id="veh_12" type="car" route="north_to_south" depart="360.0" />
    <vehicle id="veh_13" type="car" route="north_to_south" depart="390.0" />
    <vehicle id="veh_14" type="car" route="north_to_south" depart="420.0" />
    <vehicle id="veh_15" type="car" route="north_to_south" depart="450.0" />
    <vehicle id="veh_16" type="car" route="north_to_south" depart="480.0" />
    <vehicle id="veh_17" type="car" route="north_to_south" depart="510.0" />
    <vehicle id="veh_18" type="motorcycle" route="north_to_south" depart="540.0" />
    <vehicle id="veh_19" type="car" route="north_to_south" depart="570.0" />
    <vehicle id="veh_20" type="car" route="north_to_south" depart="600.0" />
    <vehicle id="veh_21" type="motorcycle" route="north_to_south" depart="630.0" />
    <vehicle id="veh_22" type="car" route="north_to_south" depart="660.0" />
    <vehicle id="veh_23" type="motorcycle" route="north_to_south" depart="690.0" />
    <vehicle id="veh_24" type="motorcycle" route="north_to_south" depart="720.0" />
    <vehicle id="veh_25" type="car" route="north_to_south" depart="750.0" />
    <vehicle id="veh_26" type="motorcycle" route="north_to_south" depart="780.0" />
    <vehicle id="veh_27" type="motorcycle" route="north_to_south" depart="810.0" />
    <vehicle id="veh_28" type="motorcycle" route="north_to_south" depart="840.0" />
    <vehicle id="veh_29" type="car" route="north_to_south" depart="870.0" />
    <vehicle id="veh_30" type="motorcycle" route="north_to_south" depart="900.0" />
    <vehicle id="veh_31" type="car" route="north_to_south" depart="930.0" />
    <vehicle id="veh_32" type="car" route="north_to_south" depart="960.0" />
    <vehicle id="veh_33" type="car" route="north_to_south" depart="990.0" />
    <vehicle id="veh_34" type="motorcycle" route="north_to_south" depart="1020.0" />
    <vehicle id="veh_35" type="car" route="north_to_south" depart="1050.0" />
    <vehicle id="veh_36" type="car" route="north_to_south" depart="1080.0" />
    <vehicle id="veh_37" type="car" route="north_to_south" depart="1110.0" />
    <vehicle id="veh_38" type="car" route="north_to_south" depart="1140.0" />
    <vehicle id="veh_39" type="motorcycle" route="north_to_south" depart="1170.0" />
    <vehicle id="veh_40" type="car" route="north_to_south" depart="1200.0" />
    <vehicle id="veh_41" type="motorcycle" route="north_to_south" depart="1230.0" />
    <vehicle id="veh_42" type="motorcycle" route="north_to_south" depart="1260.0" />
    <vehicle id="veh_43" type="motorcycle" route="north_to_south" depart="1290.0" />
    <vehicle id="veh_44" type="car" route="north_to_south" depart="1320.0" />
    <vehicle id="veh_45" type="car" route="north_to_south" depart="1350.0" />
    <vehicle id="veh_46" type="car" route="north_to_south" depart="1380.0" />
    <vehicle id="veh_47" type="car" route="north_to_south" depart="1410.0" />
    <vehicle id="veh_48" type="motorcycle" route="north_to_south" depart="1440.0" />
    <vehicle id="veh_49" type="car" route="north_to_south" depart="1470.0" />
    <vehicle id="veh_50" type="car" route="north_to_south" depart="1500.0" />
    <vehicle id="veh_51" type="car" route="north_to_south" depart="1530.0" />
    <vehicle id="veh_52" type="car" route="north_to_south" depart="1560.0" />
    <vehicle id="veh_53" type="car" route="north_to_south" depart="1590.0" />
    <vehicle id="veh_54" type="car" route="north_to_south" depart="1620.0" />
    <vehicle id="veh_55" type="motorcycle" route="north_to_south" depart="1650.0" />
    <vehicle id="veh_56" type="car" route="north_to_south" depart="1680.0" />
    <vehicle id="veh_57" type="motorcycle" route="north_to_south" depart="1710.0" />
    <vehicle id="veh_58" type="car" route="north_to_south" depart="1740.0" />
    <vehicle id="veh_59" type="motorcycle" route="north_to_south" depart="1770.0" />
    <vehicle id="veh_60" type="car" route="south_to_north" depart="0.0" />
    <vehicle id="veh_61" type="car" route="south_to_north" depart="36.0" />
    <vehicle id="veh_62" type="car" route="south_to_north" depart="72.0" />
    <vehicle id="veh_63" type="motorcycle" route="south_to_north" depart="108.0" />
    <vehicle id="veh_64" type="car" route="south_to_north" depart="144.0" />
    <vehicle id="veh_65" type="motorcycle" route="south_to_north" depart="180.0" />
    <vehicle id="veh_66" type="car" route="south_to_north" depart="216.0" />
    <vehicle id="veh_67" type="car" route="south_to_north" depart="252.0" />
    <vehicle id="veh_68" type="car" route="south_to_north" depart="288.0" />
    <vehicle id="veh_69" type="car" route="south_to_north" depart="324.0" />
    <vehicle id="veh_70" type="motorcycle" route="south_to_north" depart="360.0" />
    <vehicle id="veh_71" type="car" route="south_to_north" depart="396.0" />
    <vehicle id="veh_72" type="motorcycle" route="south_to_north" depart="432.0" />
    <vehicle id="veh_73" type="car" route="south_to_north" depart="468.0" />
    <vehicle id="veh_74" type="car" route="south_to_north" depart="504.0" />
    <vehicle id="veh_75" type="car" route="south_to_north" depart="540.0" />
    <vehicle id="veh_76" type="car" route="south_to_north" depart="576.0" />
    <vehicle id="veh_77" type="car" route="south_to_north" depart="612.0" />
    <vehicle id="veh_78" type="car" route="south_to_north" depart="648.0" />
    <vehicle id="veh_79" type="motorcycle" route="south_to_north" depart="684.0" />
    <vehicle id="veh_80" type="car" route="south_to_north" depart="720.0" />
    <vehicle id="veh_81" type="motorcycle" route="south_to_north" depart="756.0" />
    <vehicle id="veh_82" type="car" route="south_to_north" depart="792.0" />
    <vehicle id="veh_83" type="car" route="south_to_north" depart="828.0" />
    <vehicle id="veh_84" type="motorcycle" route="south_to_north" depart="864.0" />
    <vehicle id="veh_85" type="car" route="south_to_north" depart="900.0" />
    <vehicle id="veh_86" type="car" route="south_to_north" depart="936.0" />
    <vehicle id="veh_87" type="motorcycle" route="south_to_north" depart="972.0" />
    <vehicle id="veh_88" type="car" route="south_to_north" depart="1008.0" />
    <vehicle id="veh_89" type="car" route="south_to_north" depart="1044.0" />
    <vehicle id="veh_90" type="car" route="south_to_north" depart="1080.0" />
    <vehicle id="veh_91" type="motorcycle" route="south_to_north" depart="1116.0" />
    <vehicle id="veh_92" type="car" route="south_to_north" depart="1152.0" />
    <vehicle id="veh_93" type="car" route="south_to_north" depart="1188.0" />
    <vehicle id="veh_94" type="car" route="south_to_north" depart="1224.0" />
    <vehicle id="veh_95" type="car" route="south_to_north" depart="1260.0" />
    <vehicle id="veh_96" type="motorcycle" route="south_to_north" depart="1296.0" />
    <vehicle id="veh_97" type="motorcycle" route="south_to_north" depart="1332.0" />
    <vehicle id="veh_98" type="car" route="south_to_north" depart="1368.0" />
    <vehicle id="veh_99" type="car" route="south_to_north" depart="1404.0" />
    <vehicle id="veh_100" type="car" route="south_to_north" depart="1440.0" />
    <vehicle id="veh_101" type="car" route="south_to_north" depart="1476.0" />
    <vehicle id="veh_102" type="car" route="south_to_north" depart="1512.0" />
    <vehicle id="veh_103" type="car" route="south_to_north" depart="1548.0" />
    <vehicle id="veh_104" type="motorcycle" route="south_to_north" depart="1584.0" />
    <vehicle id="veh_105" type="car" route="south_to_north" depart="1620.0" />
    <vehicle id="veh_106" type="car" route="south_to_north" depart="1656.0" />
    <vehicle id="veh_107" type="motorcycle" route="south_to_north" depart="1692.0" />
    <vehicle id="veh_108" type="car" route="south_to_north" depart="1728.0" />
    <vehicle id="veh_109" type="car" route="south_to_north" depart="1764.0" />
    <vehicle id="veh_110" type="car" route="east_to_west" depart="0.0" />
    <vehicle id="veh_111" type="car" route="east_to_west" depart="32.7" />
    <vehicle id="veh_112" type="car" route="east_to_west" depart="65.5" />
    <vehicle id="veh_113" type="car" route="east_to_west" depart="98.2" />
    <vehicle id="veh_114" type="car" route="east_to_west" depart="130.9" />
    <vehicle id="veh_115" type="car" route="east_to_west" depart="163.6" />
    <vehicle id="veh_116" type="car" route="east_to_west" depart="196.4" />
    <vehicle id="veh_117" type="car" route="east_to_west" depart="229.1" />
    <vehicle id="veh_118" type="motorcycle" route="east_to_west" depart="261.8" />
    <vehicle id="veh_119" type="car" route="east_to_west" depart="294.5" />
    <vehicle id="veh_120" type="motorcycle" route="east_to_west" depart="327.3" />
    <vehicle id="veh_121" type="car" route="east_to_west" depart="360.0" />
    <vehicle id="veh_122" type="car" route="east_to_west" depart="392.7" />
    <vehicle id="veh_123" type="motorcycle" route="east_to_west" depart="425.5" />
    <vehicle id="veh_124" type="car" route="east_to_west" depart="458.2" />
    <vehicle id="veh_125" type="motorcycle" route="east_to_west" depart="490.9" />
    <vehicle id="veh_126" type="car" route="east_to_west" depart="523.6" />
    <vehicle id="veh_127" type="car" route="east_to_west" depart="556.4" />
    <vehicle id="veh_128" type="car" route="east_to_west" depart="589.1" />
    <vehicle id="veh_129" type="motorcycle" route="east_to_west" depart="621.8" />
    <vehicle id="veh_130" type="car" route="east_to_west" depart="654.5" />
    <vehicle id="veh_131" type="motorcycle" route="east_to_west" depart="687.3" />
    <vehicle id="veh_132" type="car" route="east_to_west" depart="720.0" />
    <vehicle id="veh_133" type="motorcycle" route="east_to_west" depart="752.7" />
    <vehicle id="veh_134" type="car" route="east_to_west" depart="785.5" />
    <vehicle id="veh_135" type="motorcycle" route="east_to_west" depart="818.2" />
    <vehicle id="veh_136" type="car" route="east_to_west" depart="850.9" />
    <vehicle id="veh_137" type="car" route="east_to_west" depart="883.6" />
    <vehicle id="veh_138" type="motorcycle" route="east_to_west" depart="916.4" />
    <vehicle id="veh_139" type="motorcycle" route="east_to_west" depart="949.1" />
    <vehicle id="veh_140" type="motorcycle" route="east_to_west" depart="981.8" />
    <vehicle id="veh_141" type="car" route="east_to_west" depart="1014.5" />
    <vehicle id="veh_142" type="car" route="east_to_west" depart="1047.3" />
    <vehicle id="veh_143" type="car" route="east_to_west" depart="1080.0" />
    <vehicle id="veh_144" type="car" route="east_to_west" depart="1112.7" />
    <vehicle id="veh_145" type="car" route="east_to_west" depart="1145.5" />
    <vehicle id="veh_146" type="car" route="east_to_west" depart="1178.2" />
    <vehicle id="veh_147" type="car" route="east_to_west" depart="1210.9" />
    <vehicle id="veh_148" type="car" route="east_to_west" depart="1243.6" />
    <vehicle id="veh_149" type="car" route="east_to_west" depart="1276.4" />
    <vehicle id="veh_150" type="motorcycle" route="east_to_west" depart="1309.1" />
    <vehicle id="veh_151" type="car" route="east_to_west" depart="1341.8" />
    <vehicle id="veh_152" type="motorcycle" route="east_to_west" depart="1374.5" />
    <vehicle id="veh_153" type="car" route="east_to_west" depart="1407.3" />
    <vehicle id="veh_154" type="car" route="east_to_west" depart="1440.0" />
    <vehicle id="veh_155" type="motorcycle" route="east_to_west" depart="1472.7" />
    <vehicle id="veh_156" type="car" route="east_to_west" depart="1505.5" />
    <vehicle id="veh_157" type="motorcycle" route="east_to_west" depart="1538.2" />
    <vehicle id="veh_158" type="motorcycle" route="east_to_west" depart="1570.9" />
    <vehicle id="veh_159" type="car" route="east_to_west" depart="1603.6" />
    <vehicle id="veh_160" type="car" route="east_to_west" depart="1636.4" />
    <vehicle id="veh_161" type="car" route="east_to_west" depart="1669.1" />
    <vehicle id="veh_162" type="car" route="east_to_west" depart="1701.8" />
    <vehicle id="veh_163" type="car" route="east_to_west" depart="1734.5" />
    <vehicle id="veh_164" type="car" route="east_to_west" depart="1767.3" />
    <vehicle id="veh_165" type="motorcycle" route="west_to_east" depart="0.0" />
    <vehicle id="veh_166" type="car" route="west_to_east" depart="40.0" />
    <vehicle id="veh_167" type="car" route="west_to_east" depart="80.0" />
    <vehicle id="veh_168" type="car" route="west_to_east" depart="120.0" />
    <vehicle id="veh_169" type="car" route="west_to_east" depart="160.0" />
    <vehicle id="veh_170" type="car" route="west_to_east" depart="200.0" />
    <vehicle id="veh_171" type="car" route="west_to_east" depart="240.0" />
    <vehicle id="veh_172" type="car" route="west_to_east" depart="280.0" />
    <vehicle id="veh_173" type="car" route="west_to_east" depart="320.0" />
    <vehicle id="veh_174" type="motorcycle" route="west_to_east" depart="360.0" />
    <vehicle id="veh_175" type="car" route="west_to_east" depart="400.0" />
    <vehicle id="veh_176" type="car" route="west_to_east" depart="440.0" />
    <vehicle id="veh_177" type="car" route="west_to_east" depart="480.0" />
    <vehicle id="veh_178" type="car" route="west_to_east" depart="520.0" />
    <vehicle id="veh_179" type="car" route="west_to_east" depart="560.0" />
    <vehicle id="veh_180" type="car" route="west_to_east" depart="600.0" />
    <vehicle id="veh_181" type="motorcycle" route="west_to_east" depart="640.0" />
    <vehicle id="veh_182" type="car" route="west_to_east" depart="680.0" />
    <vehicle id="veh_183" type="car" route="west_to_east" depart="720.0" />
    <vehicle id="veh_184" type="motorcycle" route="west_to_east" depart="760.0" />
    <vehicle id="veh_185" type="car" route="west_to_east" depart="800.0" />
    <vehicle id="veh_186" type="motorcycle" route="west_to_east" depart="840.0" />
    <vehicle id="veh_187" type="car" route="west_to_east" depart="880.0" />
    <vehicle id="veh_188" type="car" route="west_to_east" depart="920.0" />
    <vehicle id="veh_189" type="car" route="west_to_east" depart="960.0" />
    <vehicle id="veh_190" type="motorcycle" route="west_to_east" depart="1000.0" />
    <vehicle id="veh_191" type="car" route="west_to_east" depart="1040.0" />
    <vehicle id="veh_192" type="motorcycle" route="west_to_east" depart="1080.0" />
    <vehicle id="veh_193" type="motorcycle" route="west_to_east" depart="1120.0" />
    <vehicle id="veh_194" type="car" route="west_to_east" depart="1160.0" />
    <vehicle id="veh_195" type="car" route="west_to_east" depart="1200.0" />
    <vehicle id="veh_196" type="car" route="west_to_east" depart="1240.0" />
    <vehicle id="veh_197" type="motorcycle" route="west_to_east" depart="1280.0" />
    <vehicle id="veh_198" type="motorcycle" route="west_to_east" depart="1320.0" />
    <vehicle id="veh_199" type="motorcycle" route="west_to_east" depart="1360.0" />
    <vehicle id="veh_200" type="car" route="west_to_east" depart="1400.0" />
    <vehicle id="veh_201" type="car" route="west_to_east" depart="1440.0" />
    <vehicle id="veh_202" type="car" route="west_to_east" depart="1480.0" />
    <vehicle id="veh_203" type="car" route="west_to_east" depart="1520.0" />
    <vehicle id="veh_204" type="motorcycle" route="west_to_east" depart="1560.0" />
    <vehicle id="veh_205" type="motorcycle" route="west_to_east" depart="1600.0" />
    <vehicle id="veh_206" type="motorcycle" route="west_to_east" depart="1640.0" />
    <vehicle id="veh_207" type="car" route="west_to_east" depart="1680.0" />
    <vehicle id="veh_208" type="motorcycle" route="west_to_east" depart="1720.0" />
    <vehicle id="veh_209" type="car" route="west_to_east" depart="1760.0" />
    <vehicle id="veh_210" type="car" route="north_to_south" depart="1800.0" />
    <vehicle id="veh_211" type="motorcycle" route="north_to_south" depart="1815.0" />
    <vehicle id="veh_212" type="car" route="north_to_south" depart="1830.0" />
    <vehicle id="veh_213" type="car" route="north_to_south" depart="1845.0" />
    <vehicle id="veh_214" type="car" route="north_to_south" depart="1860.0" />
    <vehicle id="veh_215" type="car" route="north_to_south" depart="1871.4" />
    <vehicle id="veh_216" type="car" route="north_to_south" depart="1882.9" />
    <vehicle id="veh_217" type="motorcycle" route="north_to_south" depart="1894.3" />
    <vehicle id="veh_218" type="motorcycle" route="north_to_south" depart="1905.8" />
    <vehicle id="veh_219" type="motorcycle" route="north_to_south" depart="1917.2" />
    <vehicle id="veh_220" type="car" route="north_to_south" depart="1920.0" />
    <vehicle id="veh_221" type="car" route="north_to_south" depart="1929.3" />
    <vehicle id="veh_222" type="motorcycle" route="north_to_south" depart="1938.5" />
    <vehicle id="veh_223" type="car" route="north_to_south" depart="1947.8" />
    <vehicle id="veh_224" type="car" route="north_to_south" depart="1957.0" />
    <vehicle id="veh_225" type="car" route="north_to_south" depart="1966.3" />
    <vehicle id="veh_226" type="motorcycle" route="north_to_south" depart="1975.5" />
    <vehicle id="veh_227" type="car" route="north_to_south" depart="1980.0" />
    <vehicle id="veh_228" type="car" route="north_to_south" depart="1987.8" />
    <vehicle id="veh_229" type="motorcycle" route="north_to_south" depart="1995.5" />
    <vehicle id="veh_230" type="car" route="north_to_south" depart="2003.3" />
    <vehicle id="veh_231" type="motorcycle" route="north_to_south" depart="2011.1" />
    <vehicle id="veh_232" type="car" route="north_to_south" depart="2018.8" />
    <vehicle id="veh_233" type="car" route="north_to_south" depart="2026.6" />
    <vehicle id="veh_234" type="car" route="north_to_south" depart="2034.4" />
    <vehicle id="veh_235" type="car" route="north_to_south" depart="2040.0" />
    <vehicle id="veh_236" type="car" route="north_to_south" depart="2046.7" />
    <vehicle id="veh_237" type="car" route="north_to_south" depart="2053.4" />
    <vehicle id="veh_238" type="car" route="north_to_south" depart="2060.1" />
    <vehicle id="veh_239" type="car" route="north_to_south" depart="2066.8" />
    <vehicle id="veh_240" type="car" route="north_to_south" depart="2073.5" />
    <vehicle id="veh_241" type="car" route="north_to_south" depart="2080.2" />
    <vehicle id="veh_242" type="motorcycle" route="north_to_south" depart="2086.8" />
    <vehicle id="veh_243" type="car" route="north_to_south" depart="2093.5" />
    <vehicle id="veh_244" type="car" route="north_to_south" depart="2100.0" />
    <vehicle id="veh_245" type="car" route="north_to_south" depart="2105.9" />
    <vehicle id="veh_246" type="car" route="north_to_south" depart="2111.8" />
    <vehicle id="veh_247" type="motorcycle" route="north_to_south" depart="2117.6" />
    <vehicle id="veh_248" type="car" route="north_to_south" depart="2123.5" />
    <vehicle id="veh_249" type="car" route="north_to_south" depart="2129.4" />
    <vehicle id="veh_250" type="car" route="north_to_south" depart="2135.3" />
    <vehicle id="veh_251" type="motorcycle" route="north_to_south" depart="2141.1" />
    <vehicle id="veh_252" type="car" route="north_to_south" depart="2147.0" />
    <vehicle id="veh_253" type="car" route="north_to_south" depart="2152.9" />
    <vehicle id="veh_254" type="car" route="north_to_south" depart="2158.8" />
    <vehicle id="veh_255" type="car" route="north_to_south" depart="2160.0" />
    <vehicle id="veh_256" type="car" route="north_to_south" depart="2165.2" />
    <vehicle id="veh_257" type="car" route="north_to_south" depart="2170.5" />
    <vehicle id="veh_258" type="motorcycle" route="north_to_south" depart="2175.7" />
    <vehicle id="veh_259" type="car" route="north_to_south" depart="2181.0" />
    <vehicle id="veh_260" type="car" route="north_to_south" depart="2186.2" />
    <vehicle id="veh_261" type="car" route="north_to_south" depart="2191.4" />
    <vehicle id="veh_262" type="car" route="north_to_south" depart="2196.7" />
    <vehicle id="veh_263" type="motorcycle" route="north_to_south" depart="2201.9" />
    <vehicle id="veh_264" type="motorcycle" route="north_to_south" depart="2207.2" />
    <vehicle id="veh_265" type="car" route="north_to_south" depart="2212.4" />
    <vehicle id="veh_266" type="car" route="north_to_south" depart="2217.7" />
    <vehicle id="veh_267" type="car" route="north_to_south" depart="2220.0" />
    <vehicle id="veh_268" type="car" route="north_to_south" depart="2224.7" />
    <vehicle id="veh_269" type="motorcycle" route="north_to_south" depart="2229.5" />
    <vehicle id="veh_270" type="car" route="north_to_south" depart="2234.2" />
    <vehicle id="veh_271" type="motorcycle" route="north_to_south" depart="2238.9" />
    <vehicle id="veh_272" type="motorcycle" route="north_to_south" depart="2243.6" />
    <vehicle id="veh_273" type="car" route="north_to_south" depart="2248.4" />
    <vehicle id="veh_274" type="car" route="north_to_south" depart="2253.1" />
    <vehicle id="veh_275" type="motorcycle" route="north_to_south" depart="2257.8" />
    <vehicle id="veh_276" type="car" route="north_to_south" depart="2262.6" />
    <vehicle id="veh_277" type="car" route="north_to_south" depart="2267.3" />
    <vehicle id="veh_278" type="car" route="north_to_south" depart="2272.0" />
    <vehicle id="veh_279" type="motorcycle" route="north_to_south" depart="2276.7" />
    <vehicle id="veh_280" type="car" route="north_to_south" depart="2280.0" />
    <vehicle id="veh_281" type="car" route="north_to_south" depart="2284.3" />
    <vehicle id="veh_282" type="motorcycle" route="north_to_south" depart="2288.6" />
    <vehicle id="veh_283" type="motorcycle" route="north_to_south" depart="2292.9" />
    <vehicle id="veh_284" type="motorcycle" route="north_to_south" depart="2297.2" />
    <vehicle id="veh_285" type="motorcycle" route="north_to_south" depart="2301.5" />
    <vehicle id="veh_286" type="car" route="north_to_south" depart="2305.8" />
    <vehicle id="veh_287" type="motorcycle" route="north_to_south" depart="2310.1" />
    <vehicle id="veh_288" type="motorcycle" route="north_to_south" depart="2314.5" />
    <vehicle id="veh_289" type="car" route="north_to_south" depart="2318.8" />
    <vehicle id="veh_290" type="car" route="north_to_south" depart="2323.1" />
    <vehicle id="veh_291" type="car" route="north_to_south" depart="2327.4" />
    <vehicle id="veh_292" type="car" route="north_to_south" depart="2331.7" />
    <vehicle id="veh_293" type="car" route="north_to_south" depart="2336.0" />
    <vehicle id="veh_294" type="car" route="north_to_south" depart="2340.0" />
    <vehicle id="veh_295" type="car" route="north_to_south" depart="2344.0" />
    <vehicle id="veh_296" type="motorcycle" route="north_to_south" depart="2347.9" />
    <vehicle id="veh_297" type="motorcycle" route="north_to_south" depart="2351.9" />
    <vehicle id="veh_298" type="car" route="north_to_south" depart="2355.8" />
    <vehicle id="veh_299" type="car" route="north_to_south" depart="2359.8" />
    <vehicle id="veh_300" type="motorcycle" route="north_to_south" depart="2363.7" />
    <vehicle id="veh_301" type="car" route="north_to_south" depart="2367.7" />
    <vehicle id="veh_302" type="car" route="north_to_south" depart="2371.6" />
    <vehicle id="veh_303" type="motorcycle" route="north_to_south" depart="2375.6" />
    <vehicle id="veh_304" type="motorcycle" route="north_to_south" depart="2379.5" />
    <vehicle id="veh_305" type="car" route="north_to_south" depart="2383.5" />
    <vehicle id="veh_306" type="motorcycle" route="north_to_south" depart="2387.5" />
    <vehicle id="veh_307" type="car" route="north_to_south" depart="2391.4" />
    <vehicle id="veh_308" type="car" route="north_to_south" depart="2395.4" />
    <vehicle id="veh_309" type="motorcycle" route="north_to_south" depart="2399.3" />
    <vehicle id="veh_310" type="motorcycle" route="north_to_south" depart="2400.0" />
    <vehicle id="veh_311" type="car" route="north_to_south" depart="2403.7" />
    <vehicle id="veh_312" type="car" route="north_to_south" depart="2407.3" />
    <vehicle id="veh_313" type="car" route="north_to_south" depart="2411.0" />
    <vehicle id="veh_314" type="car" route="north_to_south" depart="2414.6" />
    <vehicle id="veh_315" type="car" route="north_to_south" depart="2418.3" />
    <vehicle id="veh_316" type="car" route="north_to_south" depart="2421.9" />
    <vehicle id="veh_317" type="car" route="north_to_south" depart="2425.6" />
    <vehicle id="veh_318" type="car" route="north_to_south" depart="2429.2" />
    <vehicle id="veh_319" type="car" route="north_to_south" depart="2432.9" />
    <vehicle id="veh_320" type="car" route="north_to_south" depart="2436.6" />
    <vehicle id="veh_321" type="car" route="north_to_south" depart="2440.2" />
    <vehicle id="veh_322" type="car" route="north_to_south" depart="2443.9" />
    <vehicle id="veh_323" type="car" route="north_to_south" depart="2447.5" />
    <vehicle id="veh_324" type="motorcycle" route="north_to_south" depart="2451.2" />
    <vehicle id="veh_325" type="car" route="north_to_south" depart="2454.8" />
    <vehicle id="veh_326" type="car" route="north_to_south" depart="2458.5" />
    <vehicle id="veh_327" type="motorcycle" route="north_to_south" depart="2460.0" />
    <vehicle id="veh_328" type="motorcycle" route="north_to_south" depart="2463.4" />
    <vehicle id="veh_329" type="car" route="north_to_south" depart="2466.8" />
    <vehicle id="veh_330" type="car" route="north_to_south" depart="2470.2" />
    <vehicle id="veh_331" type="motorcycle" route="north_to_south" depart="2473.6" />
    <vehicle id="veh_332" type="motorcycle" route="north_to_south" depart="2477.0" />
    <vehicle id="veh_333" type="car" route="north_to_south" depart="2480.4" />
    <vehicle id="veh_334" type="car" route="north_to_south" depart="2483.8" />
    <vehicle id="veh_335" type="car" route="north_to_south" depart="2487.2" />
    <vehicle id="veh_336" type="motorcycle" route="north_to_south" depart="2490.6" />
    <vehicle id="veh_337" type="car" route="north_to_south" depart="2494.0" />
    <vehicle id="veh_338" type="motorcycle" route="north_to_south" depart="2497.4" />
    <vehicle id="veh_339" type="car" route="north_to_south" depart="2500.8" />
    <vehicle id="veh_340" type="motorcycle" route="north_to_south" depart="2504.2" />
    <vehicle id="veh_341" type="motorcycle" route="north_to_south" depart="2507.6" />
    <vehicle id="veh_342" type="motorcycle" route="north_to_south" depart="2511.0" />
    <vehicle id="veh_343" type="car" route="north_to_south" depart="2514.4" />
    <vehicle id="veh_344" type="motorcycle" route="north_to_south" depart="2517.8" />
    <vehicle id="veh_345" type="car" route="north_to_south" depart="2520.0" />
    <vehicle id="veh_346" type="motorcycle" route="north_to_south" depart="2523.2" />
    <vehicle id="veh_347" type="car" route="north_to_south" depart="2526.4" />
    <vehicle id="veh_348" type="car" route="north_to_south" depart="2529.5" />
    <vehicle id="veh_349" type="car" route="north_to_south" depart="2532.7" />
    <vehicle id="veh_350" type="motorcycle" route="north_to_south" depart="2535.9" />
    <vehicle id="veh_351" type="car" route="north_to_south" depart="2539.1" />
    <vehicle id="veh_352" type="motorcycle" route="north_to_south" depart="2542.2" />
    <vehicle id="veh_353" type="car" route="north_to_south" depart="2545.4" />
    <vehicle id="veh_354" type="motorcycle" route="north_to_south" depart="2548.6" />
    <vehicle id="veh_355" type="car" route="north_to_south" depart="2551.8" />
    <vehicle id="veh_356" type="motorcycle" route="north_to_south" depart="2554.9" />
    <vehicle id="veh_357" type="car" route="north_to_south" depart="2558.1" />
    <vehicle id="veh_358" type="car" route="north_to_south" depart="2561.3" />
    <vehicle id="veh_359" type="car" route="north_to_south" depart="2564.5" />
    <vehicle id="veh_360" type="car" route="north_to_south" depart="2567.6" />
    <vehicle id="veh_361" type="car" route="north_to_south" depart="2570.8" />
    <vehicle id="veh_362" type="car" route="north_to_south" depart="2574.0" />
    <vehicle id="veh_363" type="car" route="north_to_south" depart="2577.2" />
    <vehicle id="veh_364" type="motorcycle" route="north_to_south" depart="2580.0" />
    <vehicle id="veh_365" type="car" route="north_to_south" depart="2583.0" />
    <vehicle id="veh_366" type="car" route="north_to_south" depart="2586.0" />
    <vehicle id="veh_367" type="car" route="north_to_south" depart="2588.9" />
    <vehicle id="veh_368" type="motorcycle" route="north_to_south" depart="2591.9" />