<?xml version="1.0" encoding="UTF-8"?>\n<routes>\n    <vType id="car" accel="2.6" decel="4.5" sigma="0.5" length="5.0" maxSpeed="50.0"/>\n    <vType id="motorcycle" accel="3.0" decel="5.0" sigma="0.3" length="2.5" maxSpeed="60.0"/>\n    <route id="north_south" edges="-E2 E3"/>\n    <route id="south_north" edges="E2 -E3"/>\n    <route id="east_west" edges="-E1 E4"/>\n    <route id="west_east" edges="E1 -E4"/>\n    <vehicle id="car_0" type="car" route="north_south" depart="0"/>\n    <vehicle id="car_1" type="car" route="south_north" depart="0"/>\n    <vehicle id="car_2" type="car" route="east_west" depart="0"/>\n    <vehicle id="car_3" type="car" route="west_east" depart="0"/>\n    <vehicle id="car_4" type="car" route="north_south" depart="30"/>\n    <vehicle id="car_5" type="car" route="south_north" depart="45"/>\n    <vehicle id="car_6" type="car" route="east_west" depart="45"/>\n    <vehicle id="motorcycle_7" type="motorcycle" route="west_east" depart="45"/>\n    <vehicle id="motorcycle_8" type="motorcycle" route="north_south" depart="60"/>\n    <vehicle id="motorcycle_9" type="motorcycle" route="south_north" depart="75"/>\n    <vehicle id="car_10" type="car" route="east_west" depart="75"/>\n    <vehicle id="car_11" type="car" route="north_south" depart="90"/>\n    <vehicle id="car_12" type="car" route="west_east" depart="90"/>\n    <vehicle id="car_13" type="car" route="east_west" depart="105"/>\n    <vehicle id="car_14" type="car" route="north_south" depart="120"/>\n    <vehicle id="car_15" type="car" route="south_north" depart="120"/>\n    <vehicle id="car_16" type="car" route="west_east" depart="120"/>\n    <vehicle id="motorcycle_17" type="motorcycle" route="east_west" depart="135"/>\n    <vehicle id="motorcycle_18" type="motorcycle" route="north_south" depart="150"/>\n    <vehicle id="motorcycle_19" type="motorcycle" route="south_north" depart="150"/>\n    <vehicle id="car_20" type="car" route="east_west" depart="165"/>\n    <vehicle id="car_21" type="car" route="west_east" depart="165"/>\n    <vehicle id="car_22" type="car" route="north_south" depart="180"/>\n    <vehicle id="car_23" type="car" route="south_north" depart="180"/>\n    <vehicle id="car_24" type="car" route="north_south" depart="210"/>\n    <vehicle id="car_25" type="car" route="east_west" depart="210"/>\n    <vehicle id="car_26" type="car" route="west_east" depart="210"/>\n    <vehicle id="motorcycle_27" type="motorcycle" route="south_north" depart="225"/>\n    <vehicle id="motorcycle_28" type="motorcycle" route="north_south" depart="240"/>\n    <vehicle id="motorcycle_29" type="motorcycle" route="east_west" depart="240"/>\n    <vehicle id="car_30" type="car" route="west_east" depart="240"/>\n    <vehicle id="car_31" type="car" route="south_north" depart="255"/>\n    <vehicle id="car_32" type="car" route="north_south" depart="270"/>\n    <vehicle id="car_33" type="car" route="east_west" depart="270"/>\n    <vehicle id="car_34" type="car" route="west_east" depart="285"/>\n    <vehicle id="car_35" type="car" route="north_south" depart="300"/>\n    <vehicle id="car_36" type="car" route="west_east" depart="300"/>\n    <vehicle id="motorcycle_37" type="motorcycle" route="north_south" depart="315"/>\n    <vehicle id="motorcycle_38" type="motorcycle" route="south_north" depart="315"/>\n    <vehicle id="motorcycle_39" type="motorcycle" route="east_west" depart="315"/>\n    <vehicle id="car_40" type="car" route="north_south" depart="330"/>\n    <vehicle id="car_41" type="car" route="north_south" depart="345"/>\n    <vehicle id="car_42" type="car" route="north_south" depart="360"/>\n    <vehicle id="car_43" type="car" route="south_north" depart="360"/>\n    <vehicle id="car_44" type="car" route="west_east" depart="360"/>\n    <vehicle id="car_45" type="car" route="north_south" depart="375"/>\n    <vehicle id="car_46" type="car" route="east_west" depart="375"/>\n    <vehicle id="motorcycle_47" type="motorcycle" route="north_south" depart="390"/>\n    <vehicle id="motorcycle_48" type="motorcycle" route="north_south" depart="405"/>\n    <vehicle id="motorcycle_49" type="motorcycle" route="south_north" depart="405"/>\n    <vehicle id="car_50" type="car" route="north_south" depart="420"/>\n    <vehicle id="car_51" type="car" route="east_west" depart="420"/>\n    <vehicle id="car_52" type="car" route="west_east" depart="420"/>\n    <vehicle id="car_53" type="car" route="north_south" depart="435"/>\n    <vehicle id="car_54" type="car" route="north_south" depart="450"/>\n    <vehicle id="car_55" type="car" route="south_north" depart="450"/>\n    <vehicle id="car_56" type="car" route="north_south" depart="465"/>\n    <vehicle id="motorcycle_57" type="motorcycle" route="east_west" depart="465"/>\n    <vehicle id="motorcycle_58" type="motorcycle" route="north_south" depart="480"/>\n    <vehicle id="motorcycle_59" type="motorcycle" route="west_east" depart="480"/>\n    <vehicle id="car_60" type="car" route="north_south" depart="495"/>\n    <vehicle id="car_61" type="car" route="south_north" depart="495"/>\n    <vehicle id="car_62" type="car" route="north_south" depart="510"/>\n    <vehicle id="car_63" type="car" route="north_south" depart="525"/>\n    <vehicle id="car_64" type="car" route="east_west" depart="525"/>\n    <vehicle id="car_65" type="car" route="north_south" depart="540"/>\n    <vehicle id="car_66" type="car" route="south_north" depart="540"/>\n    <vehicle id="motorcycle_67" type="motorcycle" route="west_east" depart="540"/>\n    <vehicle id="motorcycle_68" type="motorcycle" route="north_south" depart="555"/>\n    <vehicle id="motorcycle_69" type="motorcycle" route="north_south" depart="570"/>\n    <vehicle id="car_70" type="car" route="east_west" depart="570"/>\n    <vehicle id="car_71" type="car" route="north_south" depart="585"/>\n    <vehicle id="car_72" type="car" route="south_north" depart="585"/>\n    <vehicle id="car_73" type="car" route="east_west" depart="600"/>\n    <vehicle id="car_74" type="car" route="west_east" depart="600"/>\n    <vehicle id="car_75" type="car" route="east_west" depart="615"/>\n    <vehicle id="car_76" type="car" route="north_south" depart="630"/>\n    <vehicle id="motorcycle_77" type="motorcycle" route="south_north" depart="630"/>\n    <vehicle id="motorcycle_78" type="motorcycle" route="east_west" depart="630"/>\n    <vehicle id="motorcycle_79" type="motorcycle" route="east_west" depart="645"/>\n    <vehicle id="car_80" type="car" route="east_west" depart="660"/>\n    <vehicle id="car_81" type="car" route="west_east" depart="660"/>\n    <vehicle id="car_82" type="car" route="north_south" depart="675"/>\n    <vehicle id="car_83" type="car" route="south_north" depart="675"/>\n    <vehicle id="car_84" type="car" route="east_west" depart="675"/>\n    <vehicle id="car_85" type="car" route="east_west" depart="690"/>\n    <vehicle id="car_86" type="car" route="east_west" depart="705"/>\n    <vehicle id="motorcycle_87" type="motorcycle" route="north_south" depart="720"/>\n    <vehicle id="motorcycle_88" type="motorcycle" route="east_west" depart="720"/>\n    <vehicle id="motorcycle_89" type="motorcycle" route="west_east" depart="720"/>\n    <vehicle id="car_90" type="car" route="south_north" depart="735"/>\n    <vehicle id="car_91" type="car" route="east_west" depart="735"/>\n    <vehicle id="car_92" type="car" route="east_west" depart="750"/>\n    <vehicle id="car_93" type="car" route="north_south" depart="765"/>\n    <vehicle id="car_94" type="car" route="east_west" depart="765"/>\n    <vehicle id="car_95" type="car" route="south_north" depart="780"/>\n    <vehicle id="car_96" type="car" route="east_west" depart="780"/>\n    <vehicle id="motorcycle_97" type="motorcycle" route="west_east" depart="780"/>\n    <vehicle id="motorcycle_98" type="motorcycle" route="east_west" depart="795"/>\n    <vehicle id="motorcycle_99" type="motorcycle" route="north_south" depart="810"/>\n    <vehicle id="car_100" type="car" route="east_west" depart="810"/>\n    <vehicle id="car_101" type="car" route="south_north" depart="825"/>\n    <vehicle id="car_102" type="car" route="east_west" depart="825"/>\n    <vehicle id="car_103" type="car" route="east_west" depart="840"/>\n    <vehicle id="car_104" type="car" route="west_east" depart="840"/>\n    <vehicle id="car_105" type="car" route="north_south" depart="855"/>\n    <vehicle id="car_106" type="car" route="east_west" depart="855"/>\n    <vehicle id="motorcycle_107" type="motorcycle" route="east_west" depart="870"/>\n    <vehicle id="motorcycle_108" type="motorcycle" route="south_north" depart="885"/>\n    <vehicle id="motorcycle_109" type="motorcycle" route="east_west" depart="885"/>\n    <vehicle id="car_110" type="car" route="north_south" depart="900"/>\n    <vehicle id="car_111" type="car" route="south_north" depart="930"/>\n    <vehicle id="car_112" type="car" route="east_west" depart="960"/>\n    <vehicle id="car_113" type="car" route="west_east" depart="960"/>\n    <vehicle id="car_114" type="car" route="north_south" depart="990"/>\n    <vehicle id="car_115" type="car" route="south_north" depart="1035"/>\n    <vehicle id="car_116" type="car" route="east_west" depart="1050"/>\n    <vehicle id="motorcycle_117" type="motorcycle" route="north_south" depart="1080"/>\n    <vehicle id="motorcycle_118" type="motorcycle" route="west_east" depart="1080"/>\n    <vehicle id="motorcycle_119" type="motorcycle" route="east_west" depart="1125"/>\n    <vehicle id="car_120" type="car" route="south_north" depart="1140"/>\n    <vehicle id="car_121" type="car" route="north_south" depart="1170"/>\n    <vehicle id="car_122" type="car" route="north_south" depart="1200"/>\n    <vehicle id="car_123" type="car" route="south_north" depart="1200"/>\n    <vehicle id="car_124" type="car" route="east_west" depart="1200"/>\n    <vehicle id="car_125" type="car" route="west_east" depart="1200"/>\n    <vehicle id="car_126" type="car" route="north_south" depart="1215"/>\n    <vehicle id="motorcycle_127" type="motorcycle" route="south_north" depart="1215"/>\n    <vehicle id="motorcycle_128" type="motorcycle" route="east_west" depart="1215"/>\n    <vehicle id="motorcycle_129" type="motorcycle" route="west_east" depart="1215"/>\n    <vehicle id="car_130" type="car" route="north_south" depart="1230"/>\n    <vehicle id="car_131" type="car" route="south_north" depart="1230"/>\n    <vehicle id="car_132" type="car" route="east_west" depart="1230"/>\n    <vehicle id="car_133" type="car" route="west_east" depart="1230"/>\n    <vehicle id="car_134" type="car" route="north_south" depart="1245"/>\n    <vehicle id="car_135" type="car" route="south_north" depart="1245"/>\n    <vehicle id="car_136" type="car" route="east_west" depart="1245"/>\n    <vehicle id="motorcycle_137" type="motorcycle" route="west_east" depart="1245"/>\n    <vehicle id="motorcycle_138" type="motorcycle" route="north_south" depart="1260"/>\n    <vehicle id="motorcycle_139" type="motorcycle" route="south_north" depart="1260"/>\n    <vehicle id="car_140" type="car" route="east_west" depart="1260"/>\n    <vehicle id="car_141" type="car" route="west_east" depart="1260"/>\n    <vehicle id="car_142" type="car" route="north_south" depart="1275"/>\n    <vehicle id="car_143" type="car" route="south_north" depart="1275"/>\n    <vehicle id="car_144" type="car" route="east_west" depart="1275"/>\n    <vehicle id="car_145" type="car" route="west_east" depart="1275"/>\n    <vehicle id="car_146" type="car" route="north_south" depart="1290"/>\n    <vehicle id="motorcycle_147" type="motorcycle" route="south_north" depart="1290"/>\n    <vehicle id="motorcycle_148" type="motorcycle" route="east_west" depart="1290"/>\n    <vehicle id="motorcycle_149" type="motorcycle" route="west_east" depart="1290"/>\n    <vehicle id="car_150" type="car" route="north_south" depart="1305"/>\n    <vehicle id="car_151" type="car" route="south_north" depart="1305"/>\n    <vehicle id="car_152" type="car" route="east_west" depart="1305"/>\n    <vehicle id="car_153" type="car" route="west_east" depart="1305"/>\n    <vehicle id="car_154" type="car" route="north_south" depart="1320"/>\n    <vehicle id="car_155" type="car" route="south_north" depart="1320"/>\n    <vehicle id="car_156" type="car" route="east_west" depart="1320"/>\n    <vehicle id="motorcycle_157" type="motorcycle" route="west_east" depart="1320"/>\n    <vehicle id="motorcycle_158" type="motorcycle" route="north_south" depart="1335"/>\n    <vehicle id="motorcycle_159" type="motorcycle" route="south_north" depart="1335"/>\n    <vehicle id="car_160" type="car" route="east_west" depart="1335"/>\n    <vehicle id="car_161" type="car" route="west_east" depart="1335"/>\n    <vehicle id="car_162" type="car" route="north_south" depart="1350"/>\n    <vehicle id="car_163" type="car" route="south_north" depart="1350"/>\n    <vehicle id="car_164" type="car" route="east_west" depart="1350"/>\n    <vehicle id="car_165" type="car" route="west_east" depart="1350"/>\n    <vehicle id="car_166" type="car" route="north_south" depart="1365"/>\n    <vehicle id="motorcycle_167" type="motorcycle" route="south_north" depart="1365"/>\n    <vehicle id="motorcycle_168" type="motorcycle" route="east_west" depart="1365"/>\n    <vehicle id="motorcycle_169" type="motorcycle" route="west_east" depart="1365"/>\n    <vehicle id="car_170" type="car" route="north_south" depart="1380"/>\n    <vehicle id="car_171" type="car" route="south_north" depart="1380"/>\n    <vehicle id="car_172" type="car" route="east_west" depart="1380"/>\n    <vehicle id="car_173" type="car" route="west_east" depart="1380"/>\n    <vehicle id="car_174" type="car" route="north_south" depart="1395"/>\n    <vehicle id="car_175" type="car" route="south_north" depart="1395"/>\n    <vehicle id="car_176" type="car" route="east_west" depart="1395"/>\n    <vehicle id="motorcycle_177" type="motorcycle" route="west_east" depart="1395"/>\n    <vehicle id="motorcycle_178" type="motorcycle" route="north_south" depart="1410"/>\n    <vehicle id="motorcycle_179" type="motorcycle" route="south_north" depart="1410"/>\n    <vehicle id="car_180" type="car" route="east_west" depart="1410"/>\n    <vehicle id="car_181" type="car" route="west_east" depart="1410"/>\n    <vehicle id="car_182" type="car" route="north_south" depart="1425"/>\n    <vehicle id="car_183" type="car" route="south_north" depart="1425"/>\n    <vehicle id="car_184" type="car" route="east_west" depart="1425"/>\n    <vehicle id="car_185" type="car" route="west_east" depart="1425"/>\n    <vehicle id="car_186" type="car" route="north_south" depart="1440"/>\n    <vehicle id="motorcycle_187" type="motorcycle" route="south_north" depart="1440"/>\n    <vehicle id="motorcycle_188" type="motorcycle" route="east_west" depart="1440"/>\n    <vehicle id="motorcycle_189" type="motorcycle" route="west_east" depart="1440"/>\n    <vehicle id="car_190" type="car" route="north_south" depart="1455"/>\n    <vehicle id="car_191" type="car" route="south_north" depart="1455"/>\n    <vehicle id="car_192" type="car" route="east_west" depart="1455"/>\n    <vehicle id="car_193" type="car" route="west_east" depart="1455"/>\n    <vehicle id="car_194" type="car" route="north_south" depart="1470"/>\n    <vehicle id="car_195" type="car" route="south_north" depart="1470"/>\n    <vehicle id="car_196" type="car" route="east_west" depart="1470"/>\n    <vehicle id="motorcycle_197" type="motorcycle" route="west_east" depart="1470"/>\n    <vehicle id="motorcycle_198" type="motorcycle" route="north_south" depart="1485"/>\n    <vehicle id="motorcycle_199" type="motorcycle" route="south_north" depart="1485"/>\n    <vehicle id="car_200" type="car" route="east_west" depart="1485"/>\n    <vehicle id="car_201" type="car" route="west_east" depart="1485"/>\n    <vehicle id="car_202" type="car" route="north_south" depart="1500"/>\n    <vehicle id="car_203" type="car" route="south_north" depart="1500"/>\n    <vehicle id="car_204" type="car" route="east_west" depart="1500"/>\n    <vehicle id="car_205" type="car" route="north_south" depart="1515"/>\n    <vehicle id="car_206" type="car" route="east_west" depart="1515"/>\n    <vehicle id="motorcycle_207" type="motorcycle" route="west_east" depart="1515"/>\n    <vehicle id="motorcycle_208" type="motorcycle" route="north_south" depart="1530"/>\n    <vehicle id="motorcycle_209" type="motorcycle" route="south_north" depart="1530"/>\n    <vehicle id="car_210" type="car" route="east_west" depart="1530"/>\n    <vehicle id="car_211" type="car" route="west_east" depart="1530"/>\n    <vehicle id="car_212" type="car" route="south_north" depart="1545"/>\n    <vehicle id="car_213" type="car" route="east_west" depart="1545"/>\n    <vehicle id="car_214" type="car" route="north_south" depart="1560"/>\n    <vehicle id="car_215" type="car" route="south_north" depart="1560"/>\n    <vehicle id="car_216" type="car" route="east_west" depart="1560"/>\n    <vehicle id="motorcycle_217" type="motorcycle" route="west_east" depart="1560"/>\n    <vehicle id="motorcycle_218" type="motorcycle" route="north_south" depart="1575"/>\n    <vehicle id="motorcycle_219" type="motorcycle" route="east_west" depart="1575"/>\n    <vehicle id="car_220" type="car" route="west_east" depart="1575"/>\n    <vehicle id="car_221" type="car" route="north_south" depart="1590"/>\n    <vehicle id="car_222" type="car" route="south_north" depart="1590"/>\n    <vehicle id="car_223" type="car" route="east_west" depart="1590"/>\n    <vehicle id="car_224" type="car" route="north_south" depart="1605"/>\n    <vehicle id="car_225" type="car" route="south_north" depart="1605"/>\n    <vehicle id="car_226" type="car" route="east_west" depart="1605"/>\n    <vehicle id="motorcycle_227" type="motorcycle" route="west_east" depart="1605"/>\n    <vehicle id="motorcycle_228" type="motorcycle" route="north_south" depart="1620"/>\n    <vehicle id="motorcycle_229" type="motorcycle" route="south_north" depart="1620"/>\n    <vehicle id="car_230" type="car" route="east_west" depart="1620"/>\n    <vehicle id="car_231" type="car" route="west_east" depart="1620"/>\n    <vehicle id="car_232" type="car" route="north_south" depart="1650"/>\n    <vehicle id="car_233" type="car" route="south_north" depart="1650"/>\n    <vehicle id="car_234" type="car" route="east_west" depart="1650"/>\n    <vehicle id="car_235" type="car" route="west_east" depart="1650"/>\n    <vehicle id="car_236" type="car" route="north_south" depart="1665"/>\n    <vehicle id="motorcycle_237" type="motorcycle" route="south_north" depart="1665"/>\n    <vehicle id="motorcycle_238" type="motorcycle" route="east_west" depart="1665"/>\n    <vehicle id="motorcycle_239" type="motorcycle" route="west_east" depart="1665"/>\n    <vehicle id="car_240" type="car" route="north_south" depart="1680"/>\n    <vehicle id="car_241" type="car" route="south_north" depart="1680"/>\n    <vehicle id="car_242" type="car" route="east_west" depart="1680"/>\n    <vehicle id="car_243" type="car" route="north_south" depart="1695"/>\n    <vehicle id="car_244" type="car" route="east_west" depart="1695"/>\n    <vehicle id="car_245" type="car" route="west_east" depart="1695"/>\n    <vehicle id="car_246" type="car" route="north_south" depart="1710"/>\n    <vehicle id="motorcycle_247" type="motorcycle" route="south_north" depart="1710"/>\n    <vehicle id="motorcycle_248" type="motorcycle" route="east_west" depart="1710"/>\n    <vehicle id="motorcycle_249" type="motorcycle" route="west_east" depart="1710"/>\n    <vehicle id="car_250" type="car" route="south_north" depart="1725"/>\n    <vehicle id="car_251" type="car" route="east_west" depart="1725"/>\n    <vehicle id="car_252" type="car" route="north_south" depart="1740"/>\n    <vehicle id="car_253" type="car" route="south_north" depart="1740"/>\n    <vehicle id="car_254" type="car" route="east_west" depart="1740"/>\n    <vehicle id="car_255" type="car" route="west_east" depart="1740"/>\n    <vehicle id="car_256" type="car" route="north_south" depart="1755"/>\n    <vehicle id="motorcycle_257" type="motorcycle" route="east_west" depart="1755"/>\n    <vehicle id="motorcycle_258" type="motorcycle" route="west_east" depart="1755"/>\n    <vehicle id="motorcycle_259" type="motorcycle" route="north_south" depart="1770"/>\n    <vehicle id="car_260" type="car" route="south_north" depart="1770"/>\n    <vehicle id="car_261" type="car" route="east_west" depart="1770"/>\n    <vehicle id="car_262" type="car" route="north_south" depart="1785"/>\n    <vehicle id="car_263" type="car" route="south_north" depart="1785"/>\n    <vehicle id="car_264" type="car" route="east_west" depart="1785"/>\n    <vehicle id="car_265" type="car" route="west_east" depart="1785"/>\n</routes>\n