<?xml version="1.0" encoding="UTF-8"?>\n<configuration>\n    <input>\n        <net-file value="../demo.net.xml"/>\n        <route-files value="simplified_normal_mode.rou.xml"/>\n    </input>\n    <output>\n        <tripinfo-output value="tripinfo_normal_mode.xml"/>\n    </output>\n    <time>\n        <begin value="0"/>\n        <end value="1800"/>\n    </time>\n</configuration>\n