<?xml version="1.0" encoding="UTF-8"?>\n<routes>\n    <vType id="car" accel="2.6" decel="4.5" sigma="0.5" length="5.0" maxSpeed="50.0"/>\n    <vType id="motorcycle" accel="3.0" decel="5.0" sigma="0.3" length="2.5" maxSpeed="60.0"/>\n    <route id="north_south" edges="-E2 E3"/>\n    <route id="south_north" edges="E2 -E3"/>\n    <route id="east_west" edges="-E1 E4"/>\n    <route id="west_east" edges="E1 -E4"/>\n    <vehicle id="car_0" type="car" route="north_south" depart="0"/>\n    <vehicle id="car_1" type="car" route="south_north" depart="0"/>\n    <vehicle id="car_2" type="car" route="east_west" depart="0"/>\n    <vehicle id="car_3" type="car" route="west_east" depart="0"/>\n    <vehicle id="car_4" type="car" route="north_south" depart="20"/>\n    <vehicle id="car_5" type="car" route="south_north" depart="30"/>\n    <vehicle id="car_6" type="car" route="east_west" depart="30"/>\n    <vehicle id="motorcycle_7" type="motorcycle" route="west_east" depart="30"/>\n    <vehicle id="motorcycle_8" type="motorcycle" route="north_south" depart="40"/>\n    <vehicle id="motorcycle_9" type="motorcycle" route="south_north" depart="50"/>\n    <vehicle id="car_10" type="car" route="east_west" depart="50"/>\n    <vehicle id="car_11" type="car" route="north_south" depart="60"/>\n    <vehicle id="car_12" type="car" route="west_east" depart="60"/>\n    <vehicle id="car_13" type="car" route="east_west" depart="70"/>\n    <vehicle id="car_14" type="car" route="north_south" depart="80"/>\n    <vehicle id="car_15" type="car" route="south_north" depart="80"/>\n    <vehicle id="car_16" type="car" route="east_west" depart="90"/>\n    <vehicle id="motorcycle_17" type="motorcycle" route="west_east" depart="90"/>\n    <vehicle id="motorcycle_18" type="motorcycle" route="north_south" depart="100"/>\n    <vehicle id="motorcycle_19" type="motorcycle" route="south_north" depart="100"/>\n    <vehicle id="car_20" type="car" route="east_west" depart="110"/>\n    <vehicle id="car_21" type="car" route="west_east" depart="110"/>\n    <vehicle id="car_22" type="car" route="north_south" depart="120"/>\n    <vehicle id="car_23" type="car" route="south_north" depart="120"/>\n    <vehicle id="car_24" type="car" route="north_south" depart="140"/>\n    <vehicle id="car_25" type="car" route="east_west" depart="140"/>\n    <vehicle id="car_26" type="car" route="west_east" depart="140"/>\n    <vehicle id="motorcycle_27" type="motorcycle" route="south_north" depart="150"/>\n    <vehicle id="motorcycle_28" type="motorcycle" route="north_south" depart="160"/>\n    <vehicle id="motorcycle_29" type="motorcycle" route="east_west" depart="160"/>\n    <vehicle id="car_30" type="car" route="south_north" depart="170"/>\n    <vehicle id="car_31" type="car" route="west_east" depart="170"/>\n    <vehicle id="car_32" type="car" route="north_south" depart="180"/>\n    <vehicle id="car_33" type="car" route="east_west" depart="180"/>\n    <vehicle id="car_34" type="car" route="west_east" depart="190"/>\n    <vehicle id="car_35" type="car" route="north_south" depart="200"/>\n    <vehicle id="car_36" type="car" route="south_north" depart="200"/>\n    <vehicle id="motorcycle_37" type="motorcycle" route="east_west" depart="200"/>\n    <vehicle id="motorcycle_38" type="motorcycle" route="north_south" depart="220"/>\n    <vehicle id="motorcycle_39" type="motorcycle" route="south_north" depart="220"/>\n    <vehicle id="car_40" type="car" route="east_west" depart="220"/>\n    <vehicle id="car_41" type="car" route="west_east" depart="220"/>\n    <vehicle id="car_42" type="car" route="north_south" depart="240"/>\n    <vehicle id="car_43" type="car" route="south_north" depart="240"/>\n    <vehicle id="car_44" type="car" route="east_west" depart="240"/>\n    <vehicle id="car_45" type="car" route="west_east" depart="250"/>\n    <vehicle id="car_46" type="car" route="north_south" depart="260"/>\n    <vehicle id="motorcycle_47" type="motorcycle" route="south_north" depart="270"/>\n    <vehicle id="motorcycle_48" type="motorcycle" route="east_west" depart="270"/>\n    <vehicle id="motorcycle_49" type="motorcycle" route="west_east" depart="270"/>\n    <vehicle id="car_50" type="car" route="north_south" depart="280"/>\n    <vehicle id="car_51" type="car" route="south_north" depart="290"/>\n    <vehicle id="car_52" type="car" route="east_west" depart="290"/>\n    <vehicle id="car_53" type="car" route="north_south" depart="300"/>\n    <vehicle id="car_54" type="car" route="west_east" depart="300"/>\n    <vehicle id="car_55" type="car" route="east_west" depart="310"/>\n    <vehicle id="car_56" type="car" route="north_south" depart="320"/>\n    <vehicle id="motorcycle_57" type="motorcycle" route="south_north" depart="320"/>\n    <vehicle id="motorcycle_58" type="motorcycle" route="east_west" depart="330"/>\n    <vehicle id="motorcycle_59" type="motorcycle" route="west_east" depart="330"/>\n    <vehicle id="car_60" type="car" route="north_south" depart="340"/>\n    <vehicle id="car_61" type="car" route="south_north" depart="340"/>\n    <vehicle id="car_62" type="car" route="east_west" depart="350"/>\n    <vehicle id="car_63" type="car" route="west_east" depart="350"/>\n    <vehicle id="car_64" type="car" route="north_south" depart="360"/>\n    <vehicle id="car_65" type="car" route="south_north" depart="360"/>\n    <vehicle id="car_66" type="car" route="north_south" depart="380"/>\n    <vehicle id="motorcycle_67" type="motorcycle" route="east_west" depart="380"/>\n    <vehicle id="motorcycle_68" type="motorcycle" route="west_east" depart="380"/>\n    <vehicle id="motorcycle_69" type="motorcycle" route="south_north" depart="390"/>\n    <vehicle id="car_70" type="car" route="north_south" depart="400"/>\n    <vehicle id="car_71" type="car" route="east_west" depart="400"/>\n    <vehicle id="car_72" type="car" route="south_north" depart="410"/>\n    <vehicle id="car_73" type="car" route="west_east" depart="410"/>\n    <vehicle id="car_74" type="car" route="north_south" depart="420"/>\n    <vehicle id="car_75" type="car" route="east_west" depart="420"/>\n    <vehicle id="car_76" type="car" route="west_east" depart="430"/>\n    <vehicle id="motorcycle_77" type="motorcycle" route="north_south" depart="440"/>\n    <vehicle id="motorcycle_78" type="motorcycle" route="south_north" depart="440"/>\n    <vehicle id="motorcycle_79" type="motorcycle" route="east_west" depart="440"/>\n    <vehicle id="car_80" type="car" route="north_south" depart="460"/>\n    <vehicle id="car_81" type="car" route="south_north" depart="460"/>\n    <vehicle id="car_82" type="car" route="east_west" depart="460"/>\n    <vehicle id="car_83" type="car" route="west_east" depart="460"/>\n    <vehicle id="car_84" type="car" route="north_south" depart="480"/>\n    <vehicle id="car_85" type="car" route="south_north" depart="480"/>\n    <vehicle id="car_86" type="car" route="east_west" depart="480"/>\n    <vehicle id="motorcycle_87" type="motorcycle" route="west_east" depart="490"/>\n    <vehicle id="motorcycle_88" type="motorcycle" route="north_south" depart="500"/>\n    <vehicle id="motorcycle_89" type="motorcycle" route="south_north" depart="510"/>\n    <vehicle id="car_90" type="car" route="east_west" depart="510"/>\n    <vehicle id="car_91" type="car" route="west_east" depart="510"/>\n    <vehicle id="car_92" type="car" route="north_south" depart="520"/>\n    <vehicle id="car_93" type="car" route="south_north" depart="530"/>\n    <vehicle id="car_94" type="car" route="east_west" depart="530"/>\n    <vehicle id="car_95" type="car" route="north_south" depart="540"/>\n    <vehicle id="car_96" type="car" route="west_east" depart="540"/>\n    <vehicle id="motorcycle_97" type="motorcycle" route="east_west" depart="550"/>\n    <vehicle id="motorcycle_98" type="motorcycle" route="north_south" depart="560"/>\n    <vehicle id="motorcycle_99" type="motorcycle" route="south_north" depart="560"/>\n    <vehicle id="car_100" type="car" route="east_west" depart="570"/>\n    <vehicle id="car_101" type="car" route="west_east" depart="570"/>\n    <vehicle id="car_102" type="car" route="north_south" depart="580"/>\n    <vehicle id="car_103" type="car" route="south_north" depart="580"/>\n    <vehicle id="car_104" type="car" route="east_west" depart="590"/>\n    <vehicle id="car_105" type="car" route="west_east" depart="590"/>\n    <vehicle id="car_106" type="car" route="north_south" depart="600"/>\n    <vehicle id="motorcycle_107" type="motorcycle" route="south_north" depart="600"/>\n    <vehicle id="motorcycle_108" type="motorcycle" route="east_west" depart="600"/>\n    <vehicle id="motorcycle_109" type="motorcycle" route="north_south" depart="610"/>\n    <vehicle id="car_110" type="car" route="north_south" depart="620"/>\n    <vehicle id="car_111" type="car" route="north_south" depart="630"/>\n    <vehicle id="car_112" type="car" route="south_north" depart="630"/>\n    <vehicle id="car_113" type="car" route="west_east" depart="630"/>\n    <vehicle id="car_114" type="car" route="north_south" depart="640"/>\n    <vehicle id="car_115" type="car" route="east_west" depart="640"/>\n    <vehicle id="car_116" type="car" route="north_south" depart="650"/>\n    <vehicle id="motorcycle_117" type="motorcycle" route="north_south" depart="660"/>\n    <vehicle id="motorcycle_118" type="motorcycle" route="south_north" depart="660"/>\n    <vehicle id="motorcycle_119" type="motorcycle" route="north_south" depart="670"/>\n    <vehicle id="car_120" type="car" route="north_south" depart="680"/>\n    <vehicle id="car_121" type="car" route="east_west" depart="680"/>\n    <vehicle id="car_122" type="car" route="west_east" depart="680"/>\n    <vehicle id="car_123" type="car" route="north_south" depart="690"/>\n    <vehicle id="car_124" type="car" route="south_north" depart="690"/>\n    <vehicle id="car_125" type="car" route="north_south" depart="700"/>\n    <vehicle id="car_126" type="car" route="north_south" depart="710"/>\n    <vehicle id="motorcycle_127" type="motorcycle" route="north_south" depart="720"/>\n    <vehicle id="motorcycle_128" type="motorcycle" route="south_north" depart="720"/>\n    <vehicle id="motorcycle_129" type="motorcycle" route="east_west" depart="720"/>\n    <vehicle id="car_130" type="car" route="west_east" depart="720"/>\n    <vehicle id="car_131" type="car" route="north_south" depart="730"/>\n    <vehicle id="car_132" type="car" route="north_south" depart="740"/>\n    <vehicle id="car_133" type="car" route="north_south" depart="750"/>\n    <vehicle id="car_134" type="car" route="south_north" depart="750"/>\n    <vehicle id="car_135" type="car" route="north_south" depart="760"/>\n    <vehicle id="car_136" type="car" route="east_west" depart="760"/>\n    <vehicle id="motorcycle_137" type="motorcycle" route="north_south" depart="770"/>\n    <vehicle id="motorcycle_138" type="motorcycle" route="west_east" depart="770"/>\n    <vehicle id="motorcycle_139" type="motorcycle" route="north_south" depart="780"/>\n    <vehicle id="car_140" type="car" route="south_north" depart="780"/>\n    <vehicle id="car_141" type="car" route="north_south" depart="790"/>\n    <vehicle id="car_142" type="car" route="north_south" depart="800"/>\n    <vehicle id="car_143" type="car" route="east_west" depart="800"/>\n    <vehicle id="car_144" type="car" route="north_south" depart="810"/>\n    <vehicle id="car_145" type="car" route="south_north" depart="810"/>\n    <vehicle id="car_146" type="car" route="north_south" depart="820"/>\n    <vehicle id="motorcycle_147" type="motorcycle" route="west_east" depart="820"/>\n    <vehicle id="motorcycle_148" type="motorcycle" route="north_south" depart="830"/>\n    <vehicle id="motorcycle_149" type="motorcycle" route="north_south" depart="840"/>\n    <vehicle id="car_150" type="car" route="south_north" depart="840"/>\n    <vehicle id="car_151" type="car" route="east_west" depart="840"/>\n    <vehicle id="car_152" type="car" route="north_south" depart="850"/>\n    <vehicle id="car_153" type="car" route="north_south" depart="860"/>\n    <vehicle id="car_154" type="car" route="north_south" depart="870"/>\n    <vehicle id="car_155" type="car" route="south_north" depart="870"/>\n    <vehicle id="car_156" type="car" route="west_east" depart="870"/>\n    <vehicle id="motorcycle_157" type="motorcycle" route="north_south" depart="880"/>\n    <vehicle id="motorcycle_158" type="motorcycle" route="east_west" depart="880"/>\n    <vehicle id="motorcycle_159" type="motorcycle" route="north_south" depart="890"/>\n    <vehicle id="car_160" type="car" route="north_south" depart="900"/>\n    <vehicle id="car_161" type="car" route="south_north" depart="900"/>\n    <vehicle id="car_162" type="car" route="north_south" depart="910"/>\n    <vehicle id="car_163" type="car" route="north_south" depart="920"/>\n    <vehicle id="car_164" type="car" route="east_west" depart="920"/>\n    <vehicle id="car_165" type="car" route="west_east" depart="920"/>\n    <vehicle id="car_166" type="car" route="north_south" depart="930"/>\n    <vehicle id="motorcycle_167" type="motorcycle" route="south_north" depart="930"/>\n    <vehicle id="motorcycle_168" type="motorcycle" route="north_south" depart="940"/>\n    <vehicle id="motorcycle_169" type="motorcycle" route="north_south" depart="950"/>\n    <vehicle id="car_170" type="car" route="north_south" depart="960"/>\n    <vehicle id="car_171" type="car" route="south_north" depart="960"/>\n    <vehicle id="car_172" type="car" route="east_west" depart="960"/>\n    <vehicle id="car_173" type="car" route="west_east" depart="960"/>\n    <vehicle id="car_174" type="car" route="north_south" depart="970"/>\n    <vehicle id="car_175" type="car" route="north_south" depart="980"/>\n    <vehicle id="car_176" type="car" route="north_south" depart="990"/>\n    <vehicle id="motorcycle_177" type="motorcycle" route="south_north" depart="990"/>\n    <vehicle id="motorcycle_178" type="motorcycle" route="north_south" depart="1000"/>\n    <vehicle id="motorcycle_179" type="motorcycle" route="east_west" depart="1000"/>\n    <vehicle id="car_180" type="car" route="north_south" depart="1010"/>\n    <vehicle id="car_181" type="car" route="west_east" depart="1010"/>\n    <vehicle id="car_182" type="car" route="north_south" depart="1020"/>\n    <vehicle id="car_183" type="car" route="south_north" depart="1020"/>\n    <vehicle id="car_184" type="car" route="north_south" depart="1030"/>\n    <vehicle id="car_185" type="car" route="north_south" depart="1040"/>\n    <vehicle id="car_186" type="car" route="east_west" depart="1040"/>\n    <vehicle id="motorcycle_187" type="motorcycle" route="north_south" depart="1050"/>\n    <vehicle id="motorcycle_188" type="motorcycle" route="south_north" depart="1050"/>\n    <vehicle id="motorcycle_189" type="motorcycle" route="north_south" depart="1060"/>\n    <vehicle id="car_190" type="car" route="west_east" depart="1060"/>\n    <vehicle id="car_191" type="car" route="north_south" depart="1070"/>\n    <vehicle id="car_192" type="car" route="north_south" depart="1080"/>\n    <vehicle id="car_193" type="car" route="south_north" depart="1080"/>\n    <vehicle id="car_194" type="car" route="east_west" depart="1080"/>\n    <vehicle id="car_195" type="car" route="north_south" depart="1090"/>\n    <vehicle id="car_196" type="car" route="north_south" depart="1100"/>\n    <vehicle id="motorcycle_197" type="motorcycle" route="north_south" depart="1110"/>\n    <vehicle id="motorcycle_198" type="motorcycle" route="south_north" depart="1110"/>\n    <vehicle id="motorcycle_199" type="motorcycle" route="west_east" depart="1110"/>\n    <vehicle id="car_200" type="car" route="north_south" depart="1120"/>\n    <vehicle id="car_201" type="car" route="east_west" depart="1120"/>\n    <vehicle id="car_202" type="car" route="north_south" depart="1130"/>\n    <vehicle id="car_203" type="car" route="north_south" depart="1140"/>\n    <vehicle id="car_204" type="car" route="south_north" depart="1140"/>\n    <vehicle id="car_205" type="car" route="north_south" depart="1150"/>\n    <vehicle id="car_206" type="car" route="north_south" depart="1160"/>\n    <vehicle id="motorcycle_207" type="motorcycle" route="east_west" depart="1160"/>\n    <vehicle id="motorcycle_208" type="motorcycle" route="west_east" depart="1160"/>\n    <vehicle id="motorcycle_209" type="motorcycle" route="north_south" depart="1170"/>\n    <vehicle id="car_210" type="car" route="south_north" depart="1170"/>\n    <vehicle id="car_211" type="car" route="north_south" depart="1180"/>\n    <vehicle id="car_212" type="car" route="north_south" depart="1190"/>\n    <vehicle id="car_213" type="car" route="north_south" depart="1200"/>\n    <vehicle id="car_214" type="car" route="south_north" depart="1200"/>\n    <vehicle id="car_215" type="car" route="east_west" depart="1200"/>\n    <vehicle id="car_216" type="car" route="west_east" depart="1200"/>\n    <vehicle id="motorcycle_217" type="motorcycle" route="east_west" depart="1210"/>\n    <vehicle id="motorcycle_218" type="motorcycle" route="east_west" depart="1220"/>\n    <vehicle id="motorcycle_219" type="motorcycle" route="east_west" depart="1230"/>\n    <vehicle id="car_220" type="car" route="south_north" depart="1240"/>\n    <vehicle id="car_221" type="car" route="east_west" depart="1240"/>\n    <vehicle id="car_222" type="car" route="east_west" depart="1250"/>\n    <vehicle id="car_223" type="car" route="west_east" depart="1250"/>\n    <vehicle id="car_224" type="car" route="east_west" depart="1260"/>\n    <vehicle id="car_225" type="car" route="east_west" depart="1270"/>\n    <vehicle id="car_226" type="car" route="south_north" depart="1280"/>\n    <vehicle id="motorcycle_227" type="motorcycle" route="east_west" depart="1280"/>\n    <vehicle id="motorcycle_228" type="motorcycle" route="east_west" depart="1290"/>\n    <vehicle id="motorcycle_229" type="motorcycle" route="east_west" depart="1300"/>\n    <vehicle id="car_230" type="car" route="west_east" depart="1300"/>\n    <vehicle id="car_231" type="car" route="east_west" depart="1310"/>\n    <vehicle id="car_232" type="car" route="south_north" depart="1320"/>\n    <vehicle id="car_233" type="car" route="east_west" depart="1320"/>\n    <vehicle id="car_234" type="car" route="east_west" depart="1330"/>\n    <vehicle id="car_235" type="car" route="east_west" depart="1340"/>\n    <vehicle id="car_236" type="car" route="east_west" depart="1350"/>\n    <vehicle id="motorcycle_237" type="motorcycle" route="west_east" depart="1350"/>\n    <vehicle id="motorcycle_238" type="motorcycle" route="south_north" depart="1360"/>\n    <vehicle id="motorcycle_239" type="motorcycle" route="east_west" depart="1360"/>\n    <vehicle id="car_240" type="car" route="east_west" depart="1370"/>\n    <vehicle id="car_241" type="car" route="north_south" depart="1380"/>\n    <vehicle id="car_242" type="car" route="east_west" depart="1380"/>\n    <vehicle id="car_243" type="car" route="north_south" depart="1390"/>\n    <vehicle id="car_244" type="car" route="east_west" depart="1390"/>\n    <vehicle id="car_245" type="car" route="north_south" depart="1400"/>\n    <vehicle id="car_246" type="car" route="south_north" depart="1400"/>\n    <vehicle id="motorcycle_247" type="motorcycle" route="east_west" depart="1400"/>\n    <vehicle id="motorcycle_248" type="motorcycle" route="west_east" depart="1400"/>\n    <vehicle id="motorcycle_249" type="motorcycle" route="east_west" depart="1410"/>\n    <vehicle id="car_250" type="car" route="east_west" depart="1420"/>\n    <vehicle id="car_251" type="car" route="east_west" depart="1430"/>\n    <vehicle id="car_252" type="car" route="south_north" depart="1440"/>\n    <vehicle id="car_253" type="car" route="east_west" depart="1440"/>\n    <vehicle id="car_254" type="car" route="west_east" depart="1440"/>\n    <vehicle id="car_255" type="car" route="east_west" depart="1450"/>\n    <vehicle id="car_256" type="car" route="east_west" depart="1460"/>\n    <vehicle id="motorcycle_257" type="motorcycle" route="east_west" depart="1470"/>\n    <vehicle id="motorcycle_258" type="motorcycle" route="north_south" depart="1480"/>\n    <vehicle id="motorcycle_259" type="motorcycle" route="south_north" depart="1480"/>\n    <vehicle id="car_260" type="car" route="east_west" depart="1480"/>\n    <vehicle id="car_261" type="car" route="east_west" depart="1490"/>\n    <vehicle id="car_262" type="car" route="west_east" depart="1490"/>\n    <vehicle id="car_263" type="car" route="east_west" depart="1500"/>\n    <vehicle id="car_264" type="car" route="east_west" depart="1510"/>\n    <vehicle id="car_265" type="car" route="south_north" depart="1520"/>\n    <vehicle id="car_266" type="car" route="east_west" depart="1520"/>\n    <vehicle id="motorcycle_267" type="motorcycle" route="east_west" depart="1530"/>\n    <vehicle id="motorcycle_268" type="motorcycle" route="north_south" depart="1540"/>\n    <vehicle id="motorcycle_269" type="motorcycle" route="east_west" depart="1540"/>\n    <vehicle id="car_270" type="car" route="west_east" depart="1540"/>\n    <vehicle id="car_271" type="car" route="north_south" depart="1550"/>\n    <vehicle id="car_272" type="car" route="east_west" depart="1550"/>\n    <vehicle id="car_273" type="car" route="south_north" depart="1560"/>\n    <vehicle id="car_274" type="car" route="east_west" depart="1560"/>\n    <vehicle id="car_275" type="car" route="east_west" depart="1570"/>\n    <vehicle id="car_276" type="car" route="east_west" depart="1580"/>\n    <vehicle id="motorcycle_277" type="motorcycle" route="east_west" depart="1590"/>\n    <vehicle id="motorcycle_278" type="motorcycle" route="west_east" depart="1590"/>\n    <vehicle id="motorcycle_279" type="motorcycle" route="north_south" depart="1600"/>\n    <vehicle id="car_280" type="car" route="south_north" depart="1600"/>\n    <vehicle id="car_281" type="car" route="east_west" depart="1600"/>\n    <vehicle id="car_282" type="car" route="east_west" depart="1610"/>\n    <vehicle id="car_283" type="car" route="east_west" depart="1620"/>\n    <vehicle id="car_284" type="car" route="east_west" depart="1630"/>\n    <vehicle id="car_285" type="car" route="south_north" depart="1640"/>\n    <vehicle id="car_286" type="car" route="east_west" depart="1640"/>\n    <vehicle id="motorcycle_287" type="motorcycle" route="west_east" depart="1640"/>\n    <vehicle id="motorcycle_288" type="motorcycle" route="north_south" depart="1650"/>\n    <vehicle id="motorcycle_289" type="motorcycle" route="east_west" depart="1650"/>\n    <vehicle id="car_290" type="car" route="east_west" depart="1660"/>\n    <vehicle id="car_291" type="car" route="east_west" depart="1670"/>\n    <vehicle id="car_292" type="car" route="south_north" depart="1680"/>\n    <vehicle id="car_293" type="car" route="east_west" depart="1680"/>\n    <vehicle id="car_294" type="car" route="west_east" depart="1680"/>\n    <vehicle id="car_295" type="car" route="north_south" depart="1690"/>\n    <vehicle id="car_296" type="car" route="east_west" depart="1690"/>\n    <vehicle id="motorcycle_297" type="motorcycle" route="east_west" depart="1700"/>\n    <vehicle id="motorcycle_298" type="motorcycle" route="east_west" depart="1710"/>\n    <vehicle id="motorcycle_299" type="motorcycle" route="south_north" depart="1720"/>\n    <vehicle id="car_300" type="car" route="east_west" depart="1720"/>\n    <vehicle id="car_301" type="car" route="east_west" depart="1730"/>\n    <vehicle id="car_302" type="car" route="west_east" depart="1730"/>\n    <vehicle id="car_303" type="car" route="east_west" depart="1740"/>\n    <vehicle id="car_304" type="car" route="east_west" depart="1750"/>\n    <vehicle id="car_305" type="car" route="south_north" depart="1760"/>\n    <vehicle id="car_306" type="car" route="east_west" depart="1760"/>\n    <vehicle id="motorcycle_307" type="motorcycle" route="north_south" depart="1770"/>\n    <vehicle id="motorcycle_308" type="motorcycle" route="east_west" depart="1770"/>\n    <vehicle id="motorcycle_309" type="motorcycle" route="east_west" depart="1780"/>\n    <vehicle id="car_310" type="car" route="west_east" depart="1780"/>\n    <vehicle id="car_311" type="car" route="east_west" depart="1790"/>\n    <vehicle id="car_312" type="car" route="north_south" depart="1800"/>\n    <vehicle id="car_313" type="car" route="south_north" depart="1800"/>\n    <vehicle id="car_314" type="car" route="east_west" depart="1840"/>\n    <vehicle id="car_315" type="car" route="west_east" depart="1840"/>\n    <vehicle id="car_316" type="car" route="north_south" depart="1860"/>\n    <vehicle id="motorcycle_317" type="motorcycle" route="south_north" depart="1870"/>\n    <vehicle id="motorcycle_318" type="motorcycle" route="north_south" depart="1920"/>\n    <vehicle id="motorcycle_319" type="motorcycle" route="east_west" depart="1920"/>\n    <vehicle id="car_320" type="car" route="west_east" depart="1920"/>\n    <vehicle id="car_321" type="car" route="east_west" depart="1930"/>\n    <vehicle id="car_322" type="car" route="south_north" depart="1940"/>\n    <vehicle id="car_323" type="car" route="north_south" depart="1980"/>\n    <vehicle id="car_324" type="car" route="east_west" depart="2000"/>\n    <vehicle id="car_325" type="car" route="west_east" depart="2000"/>\n    <vehicle id="car_326" type="car" route="south_north" depart="2010"/>\n    <vehicle id="motorcycle_327" type="motorcycle" route="north_south" depart="2040"/>\n    <vehicle id="motorcycle_328" type="motorcycle" route="east_west" depart="2060"/>\n    <vehicle id="motorcycle_329" type="motorcycle" route="south_north" depart="2080"/>\n    <vehicle id="car_330" type="car" route="west_east" depart="2080"/>\n    <vehicle id="car_331" type="car" route="north_south" depart="2100"/>\n    <vehicle id="car_332" type="car" route="east_west" depart="2110"/>\n    <vehicle id="car_333" type="car" route="south_north" depart="2150"/>\n    <vehicle id="car_334" type="car" route="north_south" depart="2160"/>\n    <vehicle id="car_335" type="car" route="west_east" depart="2160"/>\n    <vehicle id="car_336" type="car" route="east_west" depart="2210"/>\n    <vehicle id="motorcycle_337" type="motorcycle" route="north_south" depart="2220"/>\n    <vehicle id="motorcycle_338" type="motorcycle" route="south_north" depart="2220"/>\n    <vehicle id="motorcycle_339" type="motorcycle" route="west_east" depart="2240"/>\n    <vehicle id="car_340" type="car" route="north_south" depart="2280"/>\n    <vehicle id="car_341" type="car" route="south_north" depart="2290"/>\n    <vehicle id="car_342" type="car" route="west_east" depart="2320"/>\n    <vehicle id="car_343" type="car" route="north_south" depart="2340"/>\n    <vehicle id="car_344" type="car" route="south_north" depart="2360"/>\n    <vehicle id="car_345" type="car" route="north_south" depart="2400"/>\n    <vehicle id="car_346" type="car" route="south_north" depart="2400"/>\n    <vehicle id="motorcycle_347" type="motorcycle" route="east_west" depart="2400"/>\n    <vehicle id="motorcycle_348" type="motorcycle" route="west_east" depart="2400"/>\n    <vehicle id="motorcycle_349" type="motorcycle" route="north_south" depart="2410"/>\n    <vehicle id="car_350" type="car" route="south_north" depart="2410"/>\n    <vehicle id="car_351" type="car" route="east_west" depart="2410"/>\n    <vehicle id="car_352" type="car" route="west_east" depart="2410"/>\n    <vehicle id="car_353" type="car" route="north_south" depart="2420"/>\n    <vehicle id="car_354" type="car" route="south_north" depart="2420"/>\n    <vehicle id="car_355" type="car" route="east_west" depart="2420"/>\n    <vehicle id="car_356" type="car" route="west_east" depart="2420"/>\n    <vehicle id="motorcycle_357" type="motorcycle" route="north_south" depart="2430"/>\n    <vehicle id="motorcycle_358" type="motorcycle" route="south_north" depart="2430"/>\n    <vehicle id="motorcycle_359" type="motorcycle" route="east_west" depart="2430"/>\n    <vehicle id="car_360" type="car" route="west_east" depart="2430"/>\n    <vehicle id="car_361" type="car" route="north_south" depart="2440"/>\n    <vehicle id="car_362" type="car" route="south_north" depart="2440"/>\n    <vehicle id="car_363" type="car" route="east_west" depart="2440"/>\n    <vehicle id="car_364" type="car" route="west_east" depart="2440"/>\n    <vehicle id="car_365" type="car" route="north_south" depart="2450"/>\n    <vehicle id="car_366" type="car" route="south_north" depart="2450"/>\n    <vehicle id="motorcycle_367" type="motorcycle" route="east_west" depart="2450"/>\n    <vehicle id="motorcycle_368" type="motorcycle" route="west_east" depart="2450"/>\n    <vehicle id="motorcycle_369" type="motorcycle" route="north_south" depart="2460"/>\n    <vehicle id="car_370" type="car" route="south_north" depart="2460"/>\n    <vehicle id="car_371" type="car" route="east_west" depart="2460"/>\n    <vehicle id="car_372" type="car" route="west_east" depart="2460"/>\n    <vehicle id="car_373" type="car" route="north_south" depart="2470"/>\n    <vehicle id="car_374" type="car" route="south_north" depart="2470"/>\n    <vehicle id="car_375" type="car" route="east_west" depart="2470"/>\n    <vehicle id="car_376" type="car" route="west_east" depart="2470"/>\n    <vehicle id="motorcycle_377" type="motorcycle" route="north_south" depart="2480"/>\n    <vehicle id="motorcycle_378" type="motorcycle" route="south_north" depart="2480"/>\n    <vehicle id="motorcycle_379" type="motorcycle" route="east_west" depart="2480"/>\n    <vehicle id="car_380" type="car" route="west_east" depart="2480"/>\n    <vehicle id="car_381" type="car" route="north_south" depart="2490"/>\n    <vehicle id="car_382" type="car" route="south_north" depart="2490"/>\n    <vehicle id="car_383" type="car" route="east_west" depart="2490"/>\n    <vehicle id="car_384" type="car" route="west_east" depart="2490"/>\n    <vehicle id="car_385" type="car" route="north_south" depart="2500"/>\n    <vehicle id="car_386" type="car" route="south_north" depart="2500"/>\n    <vehicle id="motorcycle_387" 