<?xml version="1.0" encoding="UTF-8"?>
<routes>
    <vType id="normal_car" accel="2.6" decel="4.5" sigma="0.5" length="5" maxSpeed="50" />
    <route id="north_to_south" edges="E1 E1.200" />
    <route id="south_to_north" edges="-E1 -E1.238" />
    <route id="east_to_west" edges="E0 E0.319" />
    <route id="west_to_east" edges="-E0 -E0.254" />
    <vehicle id="veh_0" type="normal_car" route="north_to_south" depart="0.0" />
    <vehicle id="veh_1" type="normal_car" route="north_to_south" depart="30.0" />
    <vehicle id="veh_2" type="normal_car" route="north_to_south" depart="60.0" />
    <vehicle id="veh_3" type="normal_car" route="north_to_south" depart="90.0" />
    <vehicle id="veh_4" type="normal_car" route="north_to_south" depart="120.0" />
    <vehicle id="veh_5" type="normal_car" route="north_to_south" depart="150.0" />
    <vehicle id="veh_6" type="normal_car" route="north_to_south" depart="180.0" />
    <vehicle id="veh_7" type="normal_car" route="north_to_south" depart="210.0" />
    <vehicle id="veh_8" type="normal_car" route="north_to_south" depart="240.0" />
    <vehicle id="veh_9" type="normal_car" route="north_to_south" depart="270.0" />
    <vehicle id="veh_10" type="normal_car" route="north_to_south" depart="300.0" />
    <vehicle id="veh_11" type="normal_car" route="north_to_south" depart="330.0" />
    <vehicle id="veh_12" type="normal_car" route="north_to_south" depart="360.0" />
    <vehicle id="veh_13" type="normal_car" route="north_to_south" depart="390.0" />
    <vehicle id="veh_14" type="normal_car" route="north_to_south" depart="420.0" />
    <vehicle id="veh_15" type="normal_car" route="north_to_south" depart="450.0" />
    <vehicle id="veh_16" type="normal_car" route="north_to_south" depart="480.0" />
    <vehicle id="veh_17" type="normal_car" route="north_to_south" depart="510.0" />
    <vehicle id="veh_18" type="normal_car" route="north_to_south" depart="540.0" />
    <vehicle id="veh_19" type="normal_car" route="north_to_south" depart="570.0" />
    <vehicle id="veh_20" type="normal_car" route="north_to_south" depart="600.0" />
    <vehicle id="veh_21" type="normal_car" route="north_to_south" depart="630.0" />
    <vehicle id="veh_22" type="normal_car" route="north_to_south" depart="660.0" />
    <vehicle id="veh_23" type="normal_car" route="north_to_south" depart="690.0" />
    <vehicle id="veh_24" type="normal_car" route="north_to_south" depart="720.0" />
    <vehicle id="veh_25" type="normal_car" route="north_to_south" depart="750.0" />
    <vehicle id="veh_26" type="normal_car" route="north_to_south" depart="780.0" />
    <vehicle id="veh_27" type="normal_car" route="north_to_south" depart="810.0" />
    <vehicle id="veh_28" type="normal_car" route="north_to_south" depart="840.0" />
    <vehicle id="veh_29" type="normal_car" route="north_to_south" depart="870.0" />
    <vehicle id="veh_30" type="normal_car" route="north_to_south" depart="900.0" />
    <vehicle id="veh_31" type="normal_car" route="north_to_south" depart="930.0" />
    <vehicle id="veh_32" type="normal_car" route="north_to_south" depart="960.0" />
    <vehicle id="veh_33" type="normal_car" route="north_to_south" depart="990.0" />
    <vehicle id="veh_34" type="normal_car" route="north_to_south" depart="1020.0" />
    <vehicle id="veh_35" type="normal_car" route="north_to_south" depart="1050.0" />
    <vehicle id="veh_36" type="normal_car" route="north_to_south" depart="1080.0" />
    <vehicle id="veh_37" type="normal_car" route="north_to_south" depart="1110.0" />
    <vehicle id="veh_38" type="normal_car" route="north_to_south" depart="1140.0" />
    <vehicle id="veh_39" type="normal_car" route="north_to_south" depart="1170.0" />
    <vehicle id="veh_40" type="normal_car" route="north_to_south" depart="1200.0" />
    <vehicle id="veh_41" type="normal_car" route="north_to_south" depart="1230.0" />
    <vehicle id="veh_42" type="normal_car" route="north_to_south" depart="1260.0" />
    <vehicle id="veh_43" type="normal_car" route="north_to_south" depart="1290.0" />
    <vehicle id="veh_44" type="normal_car" route="north_to_south" depart="1320.0" />
    <vehicle id="veh_45" type="normal_car" route="north_to_south" depart="1350.0" />
    <vehicle id="veh_46" type="normal_car" route="north_to_south" depart="1380.0" />
    <vehicle id="veh_47" type="normal_car" route="north_to_south" depart="1410.0" />
    <vehicle id="veh_48" type="normal_car" route="north_to_south" depart="1440.0" />
    <vehicle id="veh_49" type="normal_car" route="north_to_south" depart="1470.0" />
    <vehicle id="veh_50" type="normal_car" route="north_to_south" depart="1500.0" />
    <vehicle id="veh_51" type="normal_car" route="north_to_south" depart="1530.0" />
    <vehicle id="veh_52" type="normal_car" route="north_to_south" depart="1560.0" />
    <vehicle id="veh_53" type="normal_car" route="north_to_south" depart="1590.0" />
    <vehicle id="veh_54" type="normal_car" route="north_to_south" depart="1620.0" />
    <vehicle id="veh_55" type="normal_car" route="north_to_south" depart="1650.0" />
    <vehicle id="veh_56" type="normal_car" route="north_to_south" depart="1680.0" />
    <vehicle id="veh_57" type="normal_car" route="north_to_south" depart="1710.0" />
    <vehicle id="veh_58" type="normal_car" route="north_to_south" depart="1740.0" />
    <vehicle id="veh_59" type="normal_car" route="north_to_south" depart="1770.0" />
    <vehicle id="veh_60" type="normal_car" route="south_to_north" depart="0.0" />
    <vehicle id="veh_61" type="normal_car" route="south_to_north" depart="36.0" />
    <vehicle id="veh_62" type="normal_car" route="south_to_north" depart="72.0" />
    <vehicle id="veh_63" type="normal_car" route="south_to_north" depart="108.0" />
    <vehicle id="veh_64" type="normal_car" route="south_to_north" depart="144.0" />
    <vehicle id="veh_65" type="normal_car" route="south_to_north" depart="180.0" />
    <vehicle id="veh_66" type="normal_car" route="south_to_north" depart="216.0" />
    <vehicle id="veh_67" type="normal_car" route="south_to_north" depart="252.0" />
    <vehicle id="veh_68" type="normal_car" route="south_to_north" depart="288.0" />
    <vehicle id="veh_69" type="normal_car" route="south_to_north" depart="324.0" />
    <vehicle id="veh_70" type="normal_car" route="south_to_north" depart="360.0" />
    <vehicle id="veh_71" type="normal_car" route="south_to_north" depart="396.0" />
    <vehicle id="veh_72" type="normal_car" route="south_to_north" depart="432.0" />
    <vehicle id="veh_73" type="normal_car" route="south_to_north" depart="468.0" />
    <vehicle id="veh_74" type="normal_car" route="south_to_north" depart="504.0" />
    <vehicle id="veh_75" type="normal_car" route="south_to_north" depart="540.0" />
    <vehicle id="veh_76" type="normal_car" route="south_to_north" depart="576.0" />
    <vehicle id="veh_77" type="normal_car" route="south_to_north" depart="612.0" />
    <vehicle id="veh_78" type="normal_car" route="south_to_north" depart="648.0" />
    <vehicle id="veh_79" type="normal_car" route="south_to_north" depart="684.0" />
    <vehicle id="veh_80" type="normal_car" route="south_to_north" depart="720.0" />
    <vehicle id="veh_81" type="normal_car" route="south_to_north" depart="756.0" />
    <vehicle id="veh_82" type="normal_car" route="south_to_north" depart="792.0" />
    <vehicle id="veh_83" type="normal_car" route="south_to_north" depart="828.0" />
    <vehicle id="veh_84" type="normal_car" route="south_to_north" depart="864.0" />
    <vehicle id="veh_85" type="normal_car" route="south_to_north" depart="900.0" />
    <vehicle id="veh_86" type="normal_car" route="south_to_north" depart="936.0" />
    <vehicle id="veh_87" type="normal_car" route="south_to_north" depart="972.0" />
    <vehicle id="veh_88" type="normal_car" route="south_to_north" depart="1008.0" />
    <vehicle id="veh_89" type="normal_car" route="south_to_north" depart="1044.0" />
    <vehicle id="veh_90" type="normal_car" route="south_to_north" depart="1080.0" />
    <vehicle id="veh_91" type="normal_car" route="south_to_north" depart="1116.0" />
    <vehicle id="veh_92" type="normal_car" route="south_to_north" depart="1152.0" />
    <vehicle id="veh_93" type="normal_car" route="south_to_north" depart="1188.0" />
    <vehicle id="veh_94" type="normal_car" route="south_to_north" depart="1224.0" />
    <vehicle id="veh_95" type="normal_car" route="south_to_north" depart="1260.0" />
    <vehicle id="veh_96" type="normal_car" route="south_to_north" depart="1296.0" />
    <vehicle id="veh_97" type="normal_car" route="south_to_north" depart="1332.0" />
    <vehicle id="veh_98" type="normal_car" route="south_to_north" depart="1368.0" />
    <vehicle id="veh_99" type="normal_car" route="south_to_north" depart="1404.0" />
    <vehicle id="veh_100" type="normal_car" route="south_to_north" depart="1440.0" />
    <vehicle id="veh_101" type="normal_car" route="south_to_north" depart="1476.0" />
    <vehicle id="veh_102" type="normal_car" route="south_to_north" depart="1512.0" />
    <vehicle id="veh_103" type="normal_car" route="south_to_north" depart="1548.0" />
    <vehicle id="veh_104" type="normal_car" route="south_to_north" depart="1584.0" />
    <vehicle id="veh_105" type="normal_car" route="south_to_north" depart="1620.0" />
    <vehicle id="veh_106" type="normal_car" route="south_to_north" depart="1656.0" />
    <vehicle id="veh_107" type="normal_car" route="south_to_north" depart="1692.0" />
    <vehicle id="veh_108" type="normal_car" route="south_to_north" depart="1728.0" />
    <vehicle id="veh_109" type="normal_car" route="south_to_north" depart="1764.0" />
    <vehicle id="veh_110" type="normal_car" route="east_to_west" depart="0.0" />
    <vehicle id="veh_111" type="normal_car" route="east_to_west" depart="32.7" />
    <vehicle id="veh_112" type="normal_car" route="east_to_west" depart="65.5" />
    <vehicle id="veh_113" type="normal_car" route="east_to_west" depart="98.2" />
    <vehicle id="veh_114" type="normal_car" route="east_to_west" depart="130.9" />
    <vehicle id="veh_115" type="normal_car" route="east_to_west" depart="163.6" />
    <vehicle id="veh_116" type="normal_car" route="east_to_west" depart="196.4" />
    <vehicle id="veh_117" type="normal_car" route="east_to_west" depart="229.1" />
    <vehicle id="veh_118" type="normal_car" route="east_to_west" depart="261.8" />
    <vehicle id="veh_119" type="normal_car" route="east_to_west" depart="294.5" />
    <vehicle id="veh_120" type="normal_car" route="east_to_west" depart="327.3" />
    <vehicle id="veh_121" type="normal_car" route="east_to_west" depart="360.0" />
    <vehicle id="veh_122" type="normal_car" route="east_to_west" depart="392.7" />
    <vehicle id="veh_123" type="normal_car" route="east_to_west" depart="425.5" />
    <vehicle id="veh_124" type="normal_car" route="east_to_west" depart="458.2" />
    <vehicle id="veh_125" type="normal_car" route="east_to_west" depart="490.9" />
    <vehicle id="veh_126" type="normal_car" route="east_to_west" depart="523.6" />
    <vehicle id="veh_127" type="normal_car" route="east_to_west" depart="556.4" />
    <vehicle id="veh_128" type="normal_car" route="east_to_west" depart="589.1" />
    <vehicle id="veh_129" type="normal_car" route="east_to_west" depart="621.8" />
    <vehicle id="veh_130" type="normal_car" route="east_to_west" depart="654.5" />
    <vehicle id="veh_131" type="normal_car" route="east_to_west" depart="687.3" />
    <vehicle id="veh_132" type="normal_car" route="east_to_west" depart="720.0" />
    <vehicle id="veh_133" type="normal_car" route="east_to_west" depart="752.7" />
    <vehicle id="veh_134" type="normal_car" route="east_to_west" depart="785.5" />
    <vehicle id="veh_135" type="normal_car" route="east_to_west" depart="818.2" />
    <vehicle id="veh_136" type="normal_car" route="east_to_west" depart="850.9" />
    <vehicle id="veh_137" type="normal_car" route="east_to_west" depart="883.6" />
    <vehicle id="veh_138" type="normal_car" route="east_to_west" depart="916.4" />
    <vehicle id="veh_139" type="normal_car" route="east_to_west" depart="949.1" />
    <vehicle id="veh_140" type="normal_car" route="east_to_west" depart="981.8" />
    <vehicle id="veh_141" type="normal_car" route="east_to_west" depart="1014.5" />
    <vehicle id="veh_142" type="normal_car" route="east_to_west" depart="1047.3" />
    <vehicle id="veh_143" type="normal_car" route="east_to_west" depart="1080.0" />
    <vehicle id="veh_144" type="normal_car" route="east_to_west" depart="1112.7" />
    <vehicle id="veh_145" type="normal_car" route="east_to_west" depart="1145.5" />
    <vehicle id="veh_146" type="normal_car" route="east_to_west" depart="1178.2" />
    <vehicle id="veh_147" type="normal_car" route="east_to_west" depart="1210.9" />
    <vehicle id="veh_148" type="normal_car" route="east_to_west" depart="1243.6" />
    <vehicle id="veh_149" type="normal_car" route="east_to_west" depart="1276.4" />
    <vehicle id="veh_150" type="normal_car" route="east_to_west" depart="1309.1" />
    <vehicle id="veh_151" type="normal_car" route="east_to_west" depart="1341.8" />
    <vehicle id="veh_152" type="normal_car" route="east_to_west" depart="1374.5" />
    <vehicle id="veh_153" type="normal_car" route="east_to_west" depart="1407.3" />
    <vehicle id="veh_154" type="normal_car" route="east_to_west" depart="1440.0" />
    <vehicle id="veh_155" type="normal_car" route="east_to_west" depart="1472.7" />
    <vehicle id="veh_156" type="normal_car" route="east_to_west" depart="1505.5" />
    <vehicle id="veh_157" type="normal_car" route="east_to_west" depart="1538.2" />
    <vehicle id="veh_158" type="normal_car" route="east_to_west" depart="1570.9" />
    <vehicle id="veh_159" type="normal_car" route="east_to_west" depart="1603.6" />
    <vehicle id="veh_160" type="normal_car" route="east_to_west" depart="1636.4" />
    <vehicle id="veh_161" type="normal_car" route="east_to_west" depart="1669.1" />
    <vehicle id="veh_162" type="normal_car" route="east_to_west" depart="1701.8" />
    <vehicle id="veh_163" type="normal_car" route="east_to_west" depart="1734.5" />
    <vehicle id="veh_164" type="normal_car" route="east_to_west" depart="1767.3" />
    <vehicle id="veh_165" type="normal_car" route="west_to_east" depart="0.0" />
    <vehicle id="veh_166" type="normal_car" route="west_to_east" depart="40.0" />
    <vehicle id="veh_167" type="normal_car" route="west_to_east" depart="80.0" />
    <vehicle id="veh_168" type="normal_car" route="west_to_east" depart="120.0" />
    <vehicle id="veh_169" type="normal_car" route="west_to_east" depart="160.0" />
    <vehicle id="veh_170" type="normal_car" route="west_to_east" depart="200.0" />
    <vehicle id="veh_171" type="normal_car" route="west_to_east" depart="240.0" />
    <vehicle id="veh_172" type="normal_car" route="west_to_east" depart="280.0" />
    <vehicle id="veh_173" type="normal_car" route="west_to_east" depart="320.0" />
    <vehicle id="veh_174" type="normal_car" route="west_to_east" depart="360.0" />
    <vehicle id="veh_175" type="normal_car" route="west_to_east" depart="400.0" />
    <vehicle id="veh_176" type="normal_car" route="west_to_east" depart="440.0" />
    <vehicle id="veh_177" type="normal_car" route="west_to_east" depart="480.0" />
    <vehicle id="veh_178" type="normal_car" route="west_to_east" depart="520.0" />
    <vehicle id="veh_179" type="normal_car" route="west_to_east" depart="560.0" />
    <vehicle id="veh_180" type="normal_car" route="west_to_east" depart="600.0" />
    <vehicle id="veh_181" type="normal_car" route="west_to_east" depart="640.0" />
    <vehicle id="veh_182" type="normal_car" route="west_to_east" depart="680.0" />
    <vehicle id="veh_183" type="normal_car" route="west_to_east" depart="720.0" />
    <vehicle id="veh_184" type="normal_car" route="west_to_east" depart="760.0" />
    <vehicle id="veh_185" type="normal_car" route="west_to_east" depart="800.0" />
    <vehicle id="veh_186" type="normal_car" route="west_to_east" depart="840.0" />
    <vehicle id="veh_187" type="normal_car" route="west_to_east" depart="880.0" />
    <vehicle id="veh_188" type="normal_car" route="west_to_east" depart="920.0" />
    <vehicle id="veh_189" type="normal_car" route="west_to_east" depart="960.0" />
    <vehicle id="veh_190" type="normal_car" route="west_to_east" depart="1000.0" />
    <vehicle id="veh_191" type="normal_car" route="west_to_east" depart="1040.0" />
    <vehicle id="veh_192" type="normal_car" route="west_to_east" depart="1080.0" />
    <vehicle id="veh_193" type="normal_car" route="west_to_east" depart="1120.0" />
    <vehicle id="veh_194" type="normal_car" route="west_to_east" depart="1160.0" />
    <vehicle id="veh_195" type="normal_car" route="west_to_east" depart="1200.0" />
    <vehicle id="veh_196" type="normal_car" route="west_to_east" depart="1240.0" />
    <vehicle id="veh_197" type="normal_car" route="west_to_east" depart="1280.0" />
    <vehicle id="veh_198" type="normal_car" route="west_to_east" depart="1320.0" />
    <vehicle id="veh_199" type="normal_car" route="west_to_east" depart="1360.0" />
    <vehicle id="veh_200" type="normal_car" route="west_to_east" depart="1400.0" />
    <vehicle id="veh_201" type="normal_car" route="west_to_east" depart="1440.0" />
    <vehicle id="veh_202" type="normal_car" route="west_to_east" depart="1480.0" />
    <vehicle id="veh_203" type="normal_car" route="west_to_east" depart="1520.0" />
    <vehicle id="veh_204" type="normal_car" route="west_to_east" depart="1560.0" />
    <vehicle id="veh_205" type="normal_car" route="west_to_east" depart="1600.0" />
    <vehicle id="veh_206" type="normal_car" route="west_to_east" depart="1640.0" />
    <vehicle id="veh_207" type="normal_car" route="west_to_east" depart="1680.0" />
    <vehicle id="veh_208" type="normal_car" route="west_to_east" depart="1720.0" />
    <vehicle id="veh_209" type="normal_car" route="west_to_east" depart="1760.0" />
    <vehicle id="veh_210" type="normal_car" route="north_to_south" depart="1800.0" />
    <vehicle id="veh_211" type="normal_car" route="north_to_south" depart="1845.0" />
    <vehicle id="veh_212" type="normal_car" route="north_to_south" depart="1860.0" />
    <vehicle id="veh_213" type="normal_car" route="north_to_south" depart="1894.3" />
    <vehicle id="veh_214" type="normal_car" route="north_to_south" depart="1920.0" />
    <vehicle id="veh_215" type="normal_car" route="north_to_south" depart="1947.8" />
    <vehicle id="veh_216" type="normal_car" route="north_to_south" depart="1975.5" />
    <vehicle id="veh_217" type="normal_car" route="north_to_south" depart="1980.0" />
    <vehicle id="veh_218" type="normal_car" route="north_to_south" depart="2003.3" />
    <vehicle id="veh_219" type="normal_car" route="north_to_south" depart="2026.6" />
    <vehicle id="veh_220" type="normal_car" route="north_to_south" depart="2040.0" />
    <vehicle id="veh_221" type="normal_car" route="north_to_south" depart="2060.1" />
    <vehicle id="veh_222" type="normal_car" route="north_to_south" depart="2080.2" />
    <vehicle id="veh_223" type="normal_car" route="north_to_south" depart="2100.0" />
    <vehicle id="veh_224" type="normal_car" route="north_to_south" depart="2117.6" />
    <vehicle id="veh_225" type="normal_car" route="north_to_south" depart="2135.3" />
    <vehicle id="veh_226" type="normal_car" route="north_to_south" depart="2152.9" />
    <vehicle id="veh_227" type="normal_car" route="north_to_south" depart="2160.0" />
    <vehicle id="veh_228" type="normal_car" route="north_to_south" depart="2175.7" />
    <vehicle id="veh_229" type="normal_car" route="north_to_south" depart="2191.4" />
    <vehicle id="veh_230" type="normal_car" route="north_to_south" depart="2207.2" />
    <vehicle id="veh_231" type="normal_car" route="north_to_south" depart="2220.0" />
    <vehicle id="veh_232" type="normal_car" route="north_to_south" depart="2234.2" />
    <vehicle id="veh_233" type="normal_car" route="north_to_south" depart="2248.4" />
    <vehicle id="veh_234" type="normal_car" route="north_to_south" depart="2262.6" />
    <vehicle id="veh_235" type="normal_car" route="north_to_south" depart="2276.7" />
    <vehicle id="veh_236" type="normal_car" route="north_to_south" depart="2280.0" />
    <vehicle id="veh_237" type="normal_car" route="north_to_south" depart="2292.9" />
    <vehicle id="veh_238" type="normal_car" route="north_to_south" depart="2305.8" />
    <vehicle id="veh_239" type="normal_car" route="north_to_south" depart="2318.8" />
    <vehicle id="veh_240" type="normal_car" route="north_to_south" depart="2331.7" />
    <vehicle id="veh_241" type="normal_car" route="north_to_south" depart="2340.0" />
    <vehicle id="veh_242" type="normal_car" route="north_to_south" depart="2351.9" />
    <vehicle id="veh_243" type="normal_car" route="north_to_south" depart="2363.7" />
    <vehicle id="veh_244" type="normal_car" route="north_to_south" depart="2375.6" />
    <vehicle id="veh_245" type="normal_car" route="north_to_south" depart="2387.5" />
    <vehicle id="veh_246" type="normal_car" route="north_to_south" depart="2399.3" />
    <vehicle id="veh_247" type="normal_car" route="north_to_south" depart="2400.0" />
    <vehicle id="veh_248" type="normal_car" route="north_to_south" depart="2411.0" />
    <vehicle id="veh_249" type="normal_car" route="north_to_south" depart="2421.9" />
    <vehicle id="veh_250" type="normal_car" route="north_to_south" depart="2432.9" />
    <vehicle id="veh_251" type="normal_car" route="north_to_south" depart="2443.9" />
    <vehicle id="veh_252" type="normal_car" route="north_to_south" depart="2454.8" />
    <vehicle id="veh_253" type="normal_car" route="north_to_south" depart="2460.0" />
    <vehicle id="veh_254" type="normal_car" route="north_to_south" depart="2470.2" />
    <vehicle id="veh_255" type="normal_car" route="north_to_south" depart="2480.4" />
    <vehicle id="veh_256" type="normal_car" route="north_to_south" depart="2490.6" />
    <vehicle id="veh_257" type="normal_car" route="north_to_south" depart="2500.8" />
    <vehicle id="veh_258" type="normal_car" route="north_to_south" depart="2511.0" />
    <vehicle id="veh_259" type="normal_car" route="north_to_south" depart="2520.0" />
    <vehicle id="veh_260" type="normal_car" route="north_to_south" depart="2529.5" />
    <vehicle id="veh_261" type="normal_car" route="north_to_south" depart="2539.1" />
    <vehicle id="veh_262" type="normal_car" route="north_to_south" depart="2548.6" />
    <vehicle id="veh_263" type="normal_car" route="north_to_south" depart="2558.1" />
    <vehicle id="veh_264" type="normal_car" route="north_to_south" depart="2567.6" />
    <vehicle id="veh_265" type="normal_car" route="north_to_south" depart="2577.2" />
    <vehicle id="veh_266" type="normal_car" route="north_to_south" depart="2580.0" />
    <vehicle id="veh_267" type="normal_car" route="north_to_south" depart="2588.9" />
    <vehicle id="veh_268" type="normal_car" route="north_to_south" depart="2597.9" />
    <vehicle id="veh_269" type="normal_car" route="north_to_south" depart="2606.8" />
    <vehicle id="veh_270" type="normal_car" route="north_to_south" depart="2615.8" />
    <vehicle id="veh_271" type="normal_car" route="north_to_south" depart="2624.7" />
    <vehicle id="veh_272" type="normal_car" route="north_to_south" depart="2633.6" />
    <vehicle id="veh_273" type="normal_car" route="north_to_south" depart="2640.0" />
    <vehicle id="veh_274" type="normal_car" route="north_to_south" depart="2648.4" />
    <vehicle id="veh_275" type="normal_car" route="north_to_south" depart="2656.8" />
    <vehicle id="veh_276" type="normal_car" route="north_to_south" depart="2665.3" />
    <vehicle id="veh_277" type="normal_car" route="north_to_south" depart="2673.7" />
    <vehicle id="veh_278" type="normal_car" route="north_to_south" depart="2682.1" />
    <vehicle id="veh_279" type="normal_car" route="north_to_south" depart="2690.5" />
    <vehicle id="veh_280" type="normal_car" route="north_to_south" depart="2698.9" />
    <vehicle id="veh_281" type="normal_car" route="north_to_south" depart="2700.0" />
    <vehicle id="veh_282" type="normal_car" route="north_to_south" depart="2708.0" />
    <vehicle id="veh_283" type="normal_car" route="north_to_south" depart="2715.9" />
    <vehicle id="veh_284" type="normal_car" route="north_to_south" depart="2723.9" />
    <vehicle id="veh_285" type="normal_car" route="north_to_south" depart="2731.8" />
    <vehicle id="veh_286" type="normal_car" route="north_to_south" depart="2739.8" />
    <vehicle id="veh_287" type="normal_car" route="north_to_south" depart="2747.7" />
    <vehicle id="veh_288" type="normal_car" route="north_to_south" depart="2755.7" />
    <vehicle id="veh_289" type="normal_car" route="north_to_south" depart="2760.0" />
    <vehicle id="veh_290" type="normal_car" route="north_to_south" depart="2767.5" />
    <vehicle id="veh_291" type="normal_car" route="north_to_south" depart="2775.1" />
    <vehicle id="veh_292" type="normal_car" route="north_to_south" depart="2782.6" />
    <vehicle id="veh_293" type="normal_car" route="north_to_south" depart="2790.2" />
    <vehicle id="veh_294" type="normal_car" route="north_to_south" depart="2797.7" />
    <vehicle id="veh_295" type="normal_car" route="north_to_south" depart="2805.3" />
    <vehicle id="veh_296" type="normal_car" route="north_to_south" depart="2812.8" />
    <vehicle id="veh_297" type="normal_car" route="north_to_south" depart="2820.0" />
    <vehicle id="veh_298" type="normal_car" route="north_to_south" depart="2827.2" />
    <vehicle id="veh_299" type="normal_car" route="north_to_south" depart="2834.3" />
    <vehicle id="veh_300" type="normal_car" route="north_to_south" depart="2841.5" />
    <vehicle id="veh_301" type="normal_car" route="north_to_south" depart="2848.7" />
    <vehicle id="veh_302" type="normal_car" route="north_to_south" depart="2855.9" />
    <vehicle id="veh_303" type="normal_car" route="north_to_south" depart="2863.0" />
    <vehicle id="veh_304" type="normal_car" route="north_to_south" depart="2870.2" />
    <vehicle id="veh_305" type="normal_car" route="north_to_south" depart="2877.4" />
    <vehicle id="veh_306" type="normal_car" route="north_to_south" depart="2880.0" />
    <vehicle id="veh_307" type="normal_car" route="north_to_south" depart="2886.8" />
    <vehicle id="veh_308" type="normal_car" route="north_to_south" depart="2893.7" />
    <vehicle id="veh_309" type="normal_car" route="north_to_south" depart="2900.5" />
    <vehicle id="veh_310" type="normal_car" route="north_to_south" depart="2907.3" />
    <vehicle id="veh_311" type="normal_car" route="north_to_south" depart="2914.2" />
    <vehicle id="veh_312" type="normal_car" route="north_to_south" depart="2921.0" />
    <vehicle id="veh_313" type="normal_car" route="north_to_south" depart="2927.8" />
    <vehicle id="veh_314" type="normal_car" route="north_to_south" depart="2934.7" />
    <vehicle id="veh_315" type="normal_car" route="north_to_south" depart="2940.0" />
    <vehicle id="veh_316" type="normal_car" route="north_to_south" depart="2946.5" />
    <vehicle id="veh_317" type="normal_car" route="north_to_south" depart="2953.1" />
    <vehicle id="veh_318" type="normal_car" route="north_to_south" depart="2959.6" />
    <vehicle id="veh_319" type="normal_car" route="north_to_south" depart="2966.1" />
    <vehicle id="veh_320" type="normal_car" route="north_to_south" depart="2972.6" />
    <vehicle id="veh_321" type="normal_car" route="north_to_south" depart="2979.2" />
    <vehicle id="veh_322" type="normal_car" route="north_to_south" depart="2985.7" />
    <vehicle id="veh_323" type="normal_car" route="north_to_south" depart="2992.2" />
    <vehicle id="veh_324" type="normal_car" route="north_to_south" depart="2998.7" />
    <vehicle id="veh_325" type="normal_car" route="north_to_south" depart="3000.0" />
    <vehicle id="veh_326" type="normal_car" route="north_to_south" depart="3006.2" />
    <vehicle id="veh_327" type="normal_car" route="north_to_south" depart="3012.5" />
    <vehicle id="veh_328" type="normal_car" route="north_to_south" depart="3018.7" />
    <vehicle id="veh_329" type="normal_car" route="north_to_south" depart="3025.0" />
    <vehicle id="veh_330" type="normal_car" route="north_to_south" depart="3031.2" />
    <vehicle id="veh_331" type="normal_car" route="north_to_south" depart="3037.5" />
    <vehicle id="veh_332" type="normal_car" route="north_to_south" depart="3043.7" />
    <vehicle id="veh_333" type="normal_car" route="north_to_south" depart="3050.0" />
    <vehicle id="veh_334" type="normal_car" route="north_to_south" depart="3056.2" />
    <vehicle id="veh_335" type="normal_car" route="north_to_south" depart="3060.0" />
    <vehicle id="veh_336" type="normal_car" route="north_to_south" depart="3066.0" />
    <vehicle id="veh_337" type="normal_car" route="north_to_south" depart="3072.0" />
    <vehicle id="veh_338" type="normal_car" route="north_to_south" depart="3078.0" />
    <vehicle id="veh_339" type="normal_car" route="north_to_south" depart="3083.9" />
    <vehicle id="veh_340" type="normal_car" route="north_to_south" depart="3089.9" />
    <vehicle id="veh_341" type="normal_car" route="north_to_south" depart="3095.9" />
    <vehicle id="veh_342" type="normal_car" route="north_to_south" depart="3101.9" />
    <vehicle id="veh_343" type="normal_car" route="north_to_south" depart="3107.9" />
    <vehicle id="veh_344" type="normal_car" route="north_to_south" depart="3113.9" />
    <vehicle id="veh_345" type="normal_car" route="north_to_south" depart="3119.9" />
    <vehicle id="veh_346" type="normal_car" route="north_to_south" depart="3120.0" />
    <vehicle id="veh_347" type="normal_car" route="north_to_south" depart="3125.7" />
    <vehicle id="veh_348" type="normal_car" route="north_to_south" depart="3131.5" />