<?xml version="1.0" encoding="UTF-8"?>
<routes xmlns:xsi="http://www.w3.org/2001/XMLSchema-instance" xsi:noNamespaceSchemaLocation="http://sumo.dlr.de/xsd/routes_file.xsd">
    <!-- Vehicle Types -->
    <vType id="car" accel="2.6" decel="4.5" sigma="0.5" length="5" maxSpeed="13.89" />
    <vType id="motorcycle" accel="3.0" decel="5.0" sigma="0.3" length="2.5" maxSpeed="16.67" />
    
    <!-- Routes for all directions -->
    <route id="north_to_south" edges="E1 -E1" />
    <route id="south_to_north" edges="-E1 E1" />
    <route id="east_to_west" edges="E0 -E0" />
    <route id="west_to_east" edges="-E0 E0" />
</routes>
