<?xml version="1.0" encoding="UTF-8"?>
<configuration xmlns:xsi="http://www.w3.org/2001/XMLSchema-instance" xsi:noNamespaceSchemaLocation="http://sumo.dlr.de/xsd/sumoConfiguration.xsd">
    <input>
        <net-file value="../demo.net.xml"/>
        <route-files value="dynamic_timing_empty_intersection.rou.xml"/>
    </input>
    
    <time>
        <begin value="0"/>
        <end value="1800"/>
        <step-length value="1"/>
    </time>
    
    <processing>
        <time-to-teleport value="-1"/>
    </processing>
    
    <report>
        <verbose value="false"/>
        <no-step-log value="true"/>
    </report>
    
    <traci_server>
        <remote-port value="8813"/>
    </traci_server>
</configuration>